pglib_opf_case4020_goc/pglib_opf_case4020_goc_8regions.m
% -------------------------------------------------------------------------
% Partitioned MATPOWER Case File
% Copyright (c) 2025 Milad Hasanzadeh
% Generated on: 2026-06-09
% This file contains partitioned data for 8 regions


% -------------------- mpc_regionR1 --------------------

mpc_regionR1.version = '2';
mpc_regionR1.baseMVA = 100.0000;
mpc_regionR1.bus = [
%	bus_i       type        Pd          Qd          Gs          Bs          area        Vm          Va          baseKV      zone        Vmax        Vmin        
	 1	 1	 0	 0	 0	 0	 1	 1	 0	 500	 1	 1.1	 0.9;
	 2	 1	 0	 0	 0	 0	 1	 1	 0	 500	 1	 1.1	 0.9;
	 3	 1	 0	 0	 0	 0	 1	 1	 0	 500	 1	 1.1	 0.9;
	 4	 1	 0	 0	 0	 0	 1	 1	 0	 500	 1	 1.1	 0.9;
	 5	 1	 0	 0	 0	 0	 1	 1	 0	 500	 1	 1.1	 0.9;
	 6	 2	 0	 0	 0	 0	 1	 1	 0	 138	 1	 1.1	 0.9;
	 7	 1	 0	 0	 0	 0	 1	 1	 0	 500	 1	 1.1	 0.9;
	 8	 2	 0	 0	 0	 0	 1	 1	 0	 69	 1	 1.1	 0.9;
	 9	 1	 8.249	 3.151	 0	 0	 1	 1	 0	 69	 1	 1.1	 0.9;
	 10	 1	 0	 0	 0	 0	 1	 1	 0	 500	 1	 1.1	 0.9;
	 11	 1	 0	 0	 0	 0	 1	 1	 0	 138	 1	 1.1	 0.9;
	 12	 1	 16.776	 6.488	 0	 0	 1	 1	 0	 138	 1	 1.1	 0.9;
	 13	 1	 12.79	 5.376	 0	 0	 1	 1	 0	 138	 1	 1.1	 0.9;
	 14	 1	 3.244	 1.298	 0	 0	 1	 1	 0	 69	 1	 1.1	 0.9;
	 15	 1	 6.024	 2.688	 0	 0	 1	 1	 0	 69	 1	 1.1	 0.9;
	 16	 1	 3.707	 1.576	 0	 0	 1	 1	 0	 69	 1	 1.1	 0.9;
	 17	 1	 4.727	 2.224	 0	 0	 1	 1	 0	 69	 1	 1.1	 0.9;
	 18	 1	 7.044	 2.132	 0	 0	 1	 1	 0	 69	 1	 1.1	 0.9;
	 19	 1	 4.727	 2.132	 0	 0	 1	 1	 0	 69	 1	 1.1	 0.9;
	 20	 1	 4.449	 1.668	 0	 0	 1	 1	 0	 138	 1	 1.1	 0.9;
	 21	 1	 3.059	 1.39	 0	 0	 1	 1	 0	 138	 1	 1.1	 0.9;
	 22	 1	 13.717	 5.098	 0	 0	 1	 1	 0	 138	 1	 1.1	 0.9;
	 23	 1	 0	 0	 0	 0	 1	 1	 0	 500	 1	 1.1	 0.9;
	 24	 1	 4.912	 2.317	 0	 0	 1	 1	 0	 69	 1	 1.1	 0.9;
	 25	 1	 3.429	 1.668	 0	 0	 1	 1	 0	 69	 1	 1.1	 0.9;
	 26	 1	 2.224	 1.02	 0	 0	 1	 1	 0	 69	 1	 1.1	 0.9;
	 27	 1	 5.561	 2.502	 0	 0	 1	 1	 0	 69	 1	 1.1	 0.9;
	 28	 1	 0	 0	 0	 0	 1	 1	 0	 500	 1	 1.1	 0.9;
	 29	 1	 15.664	 4.171	 0	 0	 1	 1	 0	 69	 1	 1.1	 0.9;
	 30	 1	 0	 0	 0	 0	 1	 1	 0	 230	 1	 1.1	 0.9;
	 31	 1	 0	 0	 0	 0	 1	 1	 0	 138	 1	 1.1	 0.9;
	 32	 1	 17.146	 6.302	 0	 0	 1	 1	 0	 69	 1	 1.1	 0.9;
	 33	 1	 6.117	 2.502	 0	 0	 1	 1	 0	 69	 1	 1.1	 0.9;
	 34	 1	 5.468	 2.41	 0	 0	 1	 1	 0	 69	 1	 1.1	 0.9;
	 35	 1	 6.21	 2.688	 0	 0	 1	 1	 0	 69	 1	 1.1	 0.9;
	 36	 1	 0	 0	 0	 0	 1	 1	 0	 138	 1	 1.1	 0.9;
	 37	 1	 13.254	 6.024	 0	 0	 1	 1	 0	 69	 1	 1.1	 0.9;
	 38	 1	 5.005	 1.854	 0	 0	 1	 1	 0	 69	 1	 1.1	 0.9;
	 39	 1	 9.083	 3.707	 0	 0	 1	 1	 0	 69	 1	 1.1	 0.9;
	 40	 1	 19.649	 6.117	 0	 0	 1	 1	 0	 69	 1	 1.1	 0.9;
	 41	 1	 0	 0	 0	 0	 1	 1	 0	 138	 1	 1.1	 0.9;
	 42	 1	 4.912	 1.761	 0	 0	 1	 1	 0	 138	 1	 1.1	 0.9;
	 43	 1	 13.717	 1.746	 0	 0	 1	 1	 0	 69	 1	 1.1	 0.9;
	 44	 1	 0	 0	 0	 0	 1	 1	 0	 500	 1	 1.1	 0.9;
	 45	 1	 0	 0	 0	 0	 1	 1	 0	 138	 1	 1.1	 0.9;
	 46	 1	 3.893	 1.668	 0	 0	 1	 1	 0	 69	 1	 1.1	 0.9;
	 47	 1	 9.546	 3.151	 0	 0	 1	 1	 0	 69	 1	 1.1	 0.9;
	 48	 1	 6.395	 2.966	 0	 0	 1	 1	 0	 69	 1	 1.1	 0.9;
	 49	 1	 8.527	 3.059	 0	 0	 1	 1	 0	 69	 1	 1.1	 0.9;
	 50	 1	 0	 0	 0	 0	 1	 1	 0	 138	 1	 1.1	 0.9;
	 51	 1	 6.117	 2.688	 0	 0	 1	 1	 0	 69	 1	 1.1	 0.9;
	 52	 1	 30.029	 11.215	 0	 0	 1	 1	 0	 138	 1	 1.1	 0.9;
	 53	 1	 11.771	 5.005	 0	 0	 1	 1	 0	 69	 1	 1.1	 0.9;
	 54	 1	 0	 0	 0	 0	 1	 1	 0	 138	 1	 1.1	 0.9;
	 55	 1	 6.951	 2.873	 0	 0	 1	 1	 0	 138	 1	 1.1	 0.9;
	 56	 1	 10.566	 4.541	 0	 0	 1	 1	 0	 69	 1	 1.1	 0.9;
	 57	 1	 0	 0	 0	 0	 1	 1	 0	 138	 1	 1.1	 0.9;
	 58	 1	 5.839	 2.317	 0	 0	 1	 1	 0	 69	 1	 1.1	 0.9;
	 59	 1	 7.415	 2.873	 0	 0	 1	 1	 0	 69	 1	 1.1	 0.9;
	 60	 1	 0	 0	 0	 0	 1	 1	 0	 138	 1	 1.1	 0.9;
	 61	 1	 1.483	 0.927	 0	 0	 1	 1	 0	 69	 1	 1.1	 0.9;
	 62	 1	 6.395	 2.41	 0	 0	 1	 1	 0	 69	 1	 1.1	 0.9;
	 63	 1	 5.932	 2.688	 0	 0	 1	 1	 0	 69	 1	 1.1	 0.9;
	 64	 1	 13.624	 5.839	 0	 0	 1	 1	 0	 69	 1	 1.1	 0.9;
	 65	 1	 0	 0	 0	-3.99998897256	 1	 1	 0	 500	 1	 1.1	 0.9;
	 66	 1	 0	 0	 0	 0	 1	 1	 0	 500	 1	 1.1	 0.9;
	 67	 1	 4.263	 2.039	 0	 0	 1	 1	 0	 69	 1	 1.1	 0.9;
	 68	 1	 0	 0	 0	 0	 1	 1	 0	 500	 1	 1.1	 0.9;
	 69	 1	 0	 0	 0	 0	 1	 1	 0	 138	 1	 1.1	 0.9;
	 70	 1	 0	 0	 0	 0	 1	 1	 0	 138	 1	 1.1	 0.9;
	 71	 1	 11.585	 5.283	 0	 0	 1	 1	 0	 138	 1	 1.1	 0.9;
	 72	 1	 12.605	 5.468	 0	 0	 1	 1	 0	 69	 1	 1.1	 0.9;
	 73	 1	 0	 0	 0	 0	 1	 1	 0	 500	 1	 1.1	 0.9;
	 74	 1	 10.566	 3.615	 0	 0	 1	 1	 0	 138	 1	 1.1	 0.9;
	 75	 1	 0	 0	 0	 0	 1	 1	 0	 500	 1	 1.1	 0.9;
	 76	 1	 6.951	 2.502	 0	 0	 1	 1	 0	 69	 1	 1.1	 0.9;
	 77	 1	 11.956	 5.005	 0	 0	 1	 1	 0	 69	 1	 1.1	 0.9;
	 78	 1	 0	 0	 0	 0	 1	 1	 0	 500	 1	 1.1	 0.9;
	 79	 1	 5.19	 2.224	 0	 0	 1	 1	 0	 69	 1	 1.1	 0.9;
	 80	 1	 4.82	 1.854	 0	 0	 1	 1	 0	 500	 1	 1.1	 0.9;
	 81	 1	 9.639	 3.707	 0	 0	 1	 1	 0	 69	 1	 1.1	 0.9;
	 82	 1	 5.561	 2.224	 0	 0	 1	 1	 0	 69	 1	 1.1	 0.9;
	 83	 1	 5.19	 2.317	 0	 0	 1	 1	 0	 69	 1	 1.1	 0.9;
	 84	 1	 19.093	 8.62	 0	 0	 1	 1	 0	 69	 1	 1.1	 0.9;
	 85	 1	 7.507	 2.595	 0	 0	 1	 1	 0	 69	 1	 1.1	 0.9;
	 86	 1	 14.737	 6.117	 0	 0	 1	 1	 0	 69	 1	 1.1	 0.9;
	 87	 1	 8.063	 3.244	 0	 0	 1	 1	 0	 69	 1	 1.1	 0.9;
	 88	 1	 0	 0	 0	 0	 1	 1	 0	 138	 1	 1.1	 0.9;
	 89	 1	 11.215	 4.82	 0	 0	 1	 1	 0	 69	 1	 1.1	 0.9;
	 90	 1	 0	 0	 0	 0	 1	 1	 0	 138	 1	 1.1	 0.9;
	 91	 1	 3.893	 1.576	 0	 0	 1	 1	 0	 69	 1	 1.1	 0.9;
	 92	 1	 11.585	 3.059	 0	 0	 1	 1	 0	 69	 1	 1.1	 0.9;
	 93	 1	 18.537	 6.951	 0	 0	 1	 1	 0	 69	 1	 1.1	 0.9;
	 94	 1	 5.746	 2.132	 0	 0	 1	 1	 0	 69	 1	 1.1	 0.9;
	 95	 1	 0	 0	 0	 0	 1	 1	 0	 138	 1	 1.1	 0.9;
	 96	 1	 0	 0	 0	 0	 1	 1	 0	 500	 1	 1.1	 0.9;
	 97	 1	 8.434	 3.429	 0	 0	 1	 1	 0	 69	 1	 1.1	 0.9;
	 98	 1	 7.507	 3.337	 0	 0	 1	 1	 0	 69	 1	 1.1	 0.9;
	 99	 1	 7.785	 3.522	 0	 0	 1	 1	 0	 69	 1	 1.1	 0.9;
	 100	 1	 0	 0	 0	 0	 1	 1	 0	 345	 1	 1.1	 0.9;
	 101	 1	 7.971	 3.615	 0	 0	 1	 1	 0	 138	 1	 1.1	 0.9;
	 102	 1	 0	 0	 0	 0	 1	 1	 0	 138	 1	 1.1	 0.9;
	 103	 1	 15.942	 6.117	 0	 0	 1	 1	 0	 138	 1	 1.1	 0.9;
	 104	 1	 18.629	 8.342	 0	 0	 1	 1	 0	 138	 1	 1.1	 0.9;
	 105	 1	 7.229	 2.502	 0	 0	 1	 1	 0	 69	 1	 1.1	 0.9;
	 106	 1	 0	 0	 0	 0	 1	 1	 0	 138	 1	 1.1	 0.9;
	 107	 1	 8.434	 3.151	 0	 0	 1	 1	 0	 69	 1	 1.1	 0.9;
	 108	 1	 13.903	 6.117	 0	 0	 1	 1	 0	 69	 1	 1.1	 0.9;
	 109	 1	 0	 0	 0	 0	 1	 1	 0	 138	 1	 1.1	 0.9;
	 110	 1	 17.146	 6.488	 0	 0	 1	 1	 0	 69	 1	 1.1	 0.9;
	 111	 1	 0	 0	 0	 0	 1	 1	 0	 138	 1	 1.1	 0.9;
	 112	 1	 9.824	 3.615	 0	 0	 1	 1	 0	 69	 1	 1.1	 0.9;
	 113	 1	 19.927	 7.507	 0	 0	 1	 1	 0	 69	 1	 1.1	 0.9;
	 114	 1	 3.707	 1.576	 0	 0	 1	 1	 0	 69	 1	 1.1	 0.9;
	 115	 1	 13.624	 5.19	 0	 0	 1	 1	 0	 69	 1	 1.1	 0.9;
	 116	 1	 0	 0	 0	 0	 1	 1	 0	 138	 1	 1.1	 0.9;
	 117	 1	 12.234	 3.707	 0	 0	 1	 1	 0	 69	 1	 1.1	 0.9;
	 118	 1	 7.878	 3.522	 0	 0	 1	 1	 0	 69	 1	 1.1	 0.9;
	 119	 1	 0	 0	 0	 0	 1	 1	 0	 138	 1	 1.1	 0.9;
	 120	 1	 27.156	 10.473	 0	 0	 1	 1	 0	 138	 1	 1.1	 0.9;
	 121	 1	 0	 0	 0	 0	 1	 1	 0	 138	 1	 1.1	 0.9;
	 122	 1	 16.034	 6.21	 0	 0	 1	 1	 0	 69	 1	 1.1	 0.9;
	 123	 1	 12.79	 4.634	 0	 0	 1	 1	 0	 138	 1	 1.1	 0.9;
	 124	 1	 0	 0	 0	 0	 1	 1	 0	 138	 1	 1.1	 0.9;
	 125	 1	 0	 0	 0	 0	 1	 1	 0	 138	 1	 1.1	 0.9;
	 126	 1	 10.01	 4.449	 0	 0	 1	 1	 0	 138	 1	 1.1	 0.9;
	 127	 1	 0	 0	 0	 0	 1	 1	 0	 138	 1	 1.1	 0.9;
	 128	 1	 9.268	 3.8	 0	 0	 1	 1	 0	 69	 1	 1.1	 0.9;
	 129	 1	 13.532	 5.839	 0	 0	 1	 1	 0	 69	 1	 1.1	 0.9;
	 130	 1	 8.712	 3.522	 0	 0	 1	 1	 0	 138	 1	 1.1	 0.9;
	 131	 1	 0	 0	 0	 0	 1	 1	 0	 138	 1	 1.1	 0.9;
	 132	 2	 0	 0	 0	 0	 1	 1	 0	 138	 1	 1.1	 0.9;
	 133	 1	 0	 0	 0	 0	 1	 1	 0	 69	 1	 1.1	 0.9;
	 134	 2	 0	 0	 0	 0	 1	 1	 0	 138	 1	 1.1	 0.9;
	 135	 1	 0	 0	 0	 0	 1	 1	 0	 500	 1	 1.1	 0.9;
	 136	 2	 0	 0	 0	 0	 1	 1	 0	 345	 1	 1.1	 0.9;
	 137	 1	 0	 0	 0	 0	 1	 1	 0	 69	 1	 1.1	 0.9;
	 138	 2	 0	 0	 0	 0	 1	 1	 0	 69	 1	 1.1	 0.9;
	 139	 2	 0	 0	 0	 0	 1	 1	 0	 138	 1	 1.1	 0.9;
	 140	 1	 0	 0	 0	 0	 1	 1	 0	 69	 1	 1.1	 0.9;
	 141	 2	 0	 0	 0	 0	 1	 1	 0	 69	 1	 1.1	 0.9;
	 142	 1	 15.571	 5.283	 0	 0	 1	 1	 0	 69	 1	 1.1	 0.9;
	 143	 1	 11.215	 8.342	 0	 0	 1	 1	 0	 69	 1	 1.1	 0.9;
	 144	 1	 0	 0	 0	 0	 1	 1	 0	 230	 1	 1.1	 0.9;
	 145	 1	 0	 0	 0	 0	 1	 1	 0	 138	 1	 1.1	 0.9;
	 146	 1	 50.698	 16.405	 0	 0	 1	 1	 0	 69	 1	 1.1	 0.9;
	 147	 1	 0	 0	 0	 0	 1	 1	 0	 138	 1	 1.1	 0.9;
	 148	 1	 19.556	 7.229	 0	 0	 1	 1	 0	 69	 1	 1.1	 0.9;
	 149	 1	 17.888	 7.971	 0	 0	 1	 1	 0	 69	 1	 1.1	 0.9;
	 150	 1	 19.093	 7.785	 0	 0	 1	 1	 0	 69	 1	 1.1	 0.9;
	 151	 1	 7.693	 2.688	 0	 0	 1	 1	 0	 69	 1	 1.1	 0.9;
	 152	 1	 0	 0	 0	 0	 1	 1	 0	 500	 1	 1.1	 0.9;
	 153	 1	 0	 0	 0	 0	 1	 1	 0	 138	 1	 1.1	 0.9;
	 154	 1	 10.473	 3.8	 0	 0	 1	 1	 0	 69	 1	 1.1	 0.9;
	 155	 1	 31.42	 9.361	 0	 0	 1	 1	 0	 69	 1	 1.1	 0.9;
	 156	 1	 14.829	 4.078	 0	 0	 1	 1	 0	 69	 1	 1.1	 0.9;
	 157	 1	 77.576	 27.064	 0	 0	 1	 1	 0	 69	 1	 1.1	 0.9;
	 158	 1	 11.215	 3.707	 0	 0	 1	 1	 0	 69	 1	 1.1	 0.9;
	 159	 1	 13.346	 0	 0	 0	 1	 1	 0	 69	 1	 1.1	 0.9;
	 160	 1	 0	 0	 0	 0	 1	 1	 0	 138	 1	 1.1	 0.9;
	 161	 1	 275.733	 88.605	 0	 0	 1	 1	 0	 69	 1	 1.1	 0.9;
	 162	 1	 0	 0	 0	 0	 1	 1	 0	 345	 1	 1.1	 0.9;
	 163	 1	 0	 0	 0	 0	 1	 1	 0	 138	 1	 1.1	 0.9;
	 164	 1	 8.62	 3.429	 0	 0	 1	 1	 0	 69	 1	 1.1	 0.9;
	 165	 1	 18.351	 7.785	 0	 0	 1	 1	 0	 69	 1	 1.1	 0.9;
	 166	 1	 13.624	 5.376	 0	 0	 1	 1	 0	 69	 1	 1.1	 0.9;
	 167	 1	 0	 0	 0	 0	 1	 1	 0	 345	 1	 1.1	 0.9;
	 168	 1	 0	 0	 0	 0	 1	 1	 0	 138	 1	 1.1	 0.9;
	 169	 1	 6.673	 2.781	 0	 0	 1	 1	 0	 69	 1	 1.1	 0.9;
	 170	 1	 11.4	 4.541	 0	 0	 1	 1	 0	 69	 1	 1.1	 0.9;
	 171	 1	 8.898	 2.966	 0	 0	 1	 1	 0	 69	 1	 1.1	 0.9;
	 172	 1	 15.849	 6.395	 0	 0	 1	 1	 0	 69	 1	 1.1	 0.9;
	 173	 1	 25.303	 9.824	 0	 0	 1	 1	 0	 69	 1	 1.1	 0.9;
	 174	 1	 19.185	 4.912	 0	 0	 1	 1	 0	 69	 1	 1.1	 0.9;
	 175	 1	 4.356	 2.781	 0	 0	 1	 1	 0	 69	 1	 1.1	 0.9;
	 176	 1	 0	 0	 0	 0	 1	 1	 0	 138	 1	 1.1	 0.9;
	 177	 1	 42.078	 13.532	 0	 0	 1	 1	 0	 69	 1	 1.1	 0.9;
	 178	 1	 22.429	 7.971	 0	 0	 1	 1	 0	 69	 1	 1.1	 0.9;
	 179	 1	 20.668	 8.712	 0	 0	 1	 1	 0	 69	 1	 1.1	 0.9;
	 180	 1	 13.995	 5.839	 0	 0	 1	 1	 0	 69	 1	 1.1	 0.9;
	 181	 1	 12.605	 5.376	 0	 0	 1	 1	 0	 69	 1	 1.1	 0.9;
	 182	 1	 15.571	 6.488	 0	 0	 1	 1	 0	 69	 1	 1.1	 0.9;
	 183	 1	 32.81	 11.771	 0	 0	 1	 1	 0	 69	 1	 1.1	 0.9;
	 184	 1	 8.898	 3.707	 0	 0	 1	 1	 0	 69	 1	 1.1	 0.9;
	 185	 1	 6.673	 2.41	 0	 0	 1	 1	 0	 69	 1	 1.1	 0.9;
	 186	 1	 19	 7.6	 0	 0	 1	 1	 0	 69	 1	 1.1	 0.9;
	 187	 1	 19	 7.322	 0	 0	 1	 1	 0	 69	 1	 1.1	 0.9;
	 188	 1	 29.103	 11.956	 0	 0	 1	 1	 0	 69	 1	 1.1	 0.9;
];

mpc_regionR1.gen = [
%	bus         Pg          Qg          Qmax        Qmin        Vg          mBase       status      Pmax        Pmin        Pc1         Pc2         Qc1min      Qc1max      Qc2min      Qc2max      ramp_agc    ramp_10     ramp_30     ramp_q      apf         
	 6	 24.65	 0	 9.7	-9.7	 1	 100	 1	 29.6	 19.7;
	 6	 28.85	 0	 12.5	-12.5	 1	 100	 1	 38	 19.7;
	 6	 29	 0	 12.6	-12.6	 1	 100	 1	 38.3	 19.7;
	 8	 1.2	 0.1545	 0.973	-0.664	 1	 100	 1	 2	 0.4;
	 8	 1.2	 0.1545	 0.973	-0.664	 1	 100	 1	 2	 0.4;
	 8	 1.2	 0.1545	 0.973	-0.664	 1	 100	 1	 2	 0.4;
	 8	 1.2	 0.1545	 0.973	-0.664	 1	 100	 1	 2	 0.4;
	 8	 1.2	 0.1545	 0.973	-0.664	 1	 100	 1	 2	 0.4;
	 8	 1.2	 0.1545	 0.973	-0.664	 1	 100	 1	 2	 0.4;
	 8	 1.2	 0.1545	 0.973	-0.664	 1	 100	 1	 2	 0.4;
	 8	 1.2	 0.1545	 0.973	-0.664	 1	 100	 1	 2	 0.4;
	 8	 1.2	 0.1545	 0.973	-0.664	 1	 100	 1	 2	 0.4;
	 8	 1.2	 0.1545	 0.973	-0.664	 1	 100	 1	 2	 0.4;
	 8	 1.2	 0.1545	 0.973	-0.664	 1	 100	 1	 2	 0.4;
	 132	 139	 15.1	 96.9	-66.7	 1	 100	 1	 200	 78;
	 132	 139	 15.1	 96.9	-66.7	 1	 100	 1	 200	 78;
	 132	 139	 37.5	 141.7	-66.7	 1	 100	 1	 200	 78;
	 132	 139	 37.5	 141.7	-66.7	 1	 100	 1	 200	 78;
	 134	 6.021	 2.105	 7.621	-3.411	 1	 100	 1	 10.226	 1.816;
	 134	 6.021	 2.105	 7.621	-3.411	 1	 100	 1	 10.226	 1.816;
	 134	 6.021	 2.105	 7.621	-3.411	 1	 100	 1	 10.226	 1.816;
	 134	 6.021	 2.105	 7.621	-3.411	 1	 100	 1	 10.226	 1.816;
	 134	 6.021	 2.105	 7.621	-3.411	 1	 100	 1	 10.226	 1.816;
	 134	 6.021	 2.105	 7.621	-3.411	 1	 100	 1	 10.226	 1.816;
	 134	 6.021	 2.105	 7.621	-3.411	 1	 100	 1	 10.226	 1.816;
	 134	 6.021	 2.105	 7.621	-3.411	 1	 100	 1	 10.226	 1.816;
	 134	 6.021	 2.105	 7.621	-3.411	 1	 100	 1	 10.226	 1.816;
	 134	 6.021	 2.105	 7.621	-3.411	 1	 100	 1	 10.226	 1.816;
	 134	 6.021	 2.105	 7.621	-3.411	 1	 100	 1	 10.226	 1.816;
	 134	 6.021	 2.105	 7.621	-3.411	 1	 100	 1	 10.226	 1.816;
	 134	 6.021	 2.105	 7.621	-3.411	 1	 100	 1	 10.226	 1.816;
	 134	 6.021	 2.105	 7.621	-3.411	 1	 100	 1	 10.226	 1.816;
	 134	 6.021	 2.105	 7.621	-3.411	 1	 100	 1	 10.226	 1.816;
	 134	 6.021	 2.105	 7.621	-3.411	 1	 100	 1	 10.226	 1.816;
	 134	 6.021	 2.105	 7.621	-3.411	 1	 100	 1	 10.226	 1.816;
	 134	 6.021	 2.105	 7.621	-3.411	 1	 100	 1	 10.226	 1.816;
	 134	 6.021	 2.105	 7.621	-3.411	 1	 100	 1	 10.226	 1.816;
	 136	 34	 7.15	 31	-16.7	 1	 100	 1	 50	 18;
	 138	 26.55	 2.9	 18.6	-12.8	 1	 100	 1	 38.5	 14.6;
	 139	 20.75	 2.25	 14.4	-9.9	 1	 100	 1	 29.7	 11.8;
	 139	 20.75	 2.25	 14.4	-9.9	 1	 100	 1	 29.7	 11.8;
	 141	 24.7	 2.15	 13.9	-9.6	 1	 100	 1	 28.8	 20.6;
	 141	 22.25	 2.15	 13.9	-9.6	 1	 100	 1	 28.8	 15.7;
];

mpc_regionR1.branch = [
%	fbus        tbus        r           x           b           rateA       rateB       rateC       ratio       angle       status      angmin      angmax      
	 1	 66	 0.0016754	 0.0119863	 0.438741	 795	 795	 795	 0	 0	 1	-30	 30;
	 1	 152	 0.00134012	 0.00983351	 0.341487	 795	 795	 795	 0	 0	 1	-30	 30;
	 2	 28	 0.00192771	 0.0141539	 0.491957	 795	 795	 795	 0	 0	 1	-30	 30;
	 2	 66	 6.97151e-05	 0.000498317	 0.0182165	 795	 795	 795	 0	 0	 1	-30	 30;
	 2	 73	 0.000237284	 0.00169612	 0.0620048	 795	 795	 795	 0	 0	 1	-30	 30;
	 3	 78	 3.4858e-05	 0.000623046	 0.0442183	 1216	 1216	 1216	 0	 0	 1	-30	 30;
	 3	 135	 1e-07	 0.0001	 0	 400	 500	 600	 0	 0	 1	-30	 30;
	 3	 135	 1e-07	 0.0001	 0	 400	 500	 600	 0	 0	 1	-30	 30;
	 4	 23	 0.00014112	 0.00252252	 0.179046	 1216	 1216	 1216	 0	 0	 1	-30	 30;
	 4	 65	 0.000383747	 0.00686283	 0.487467	 1216	 1216	 1216	 0	 0	 1	-30	 30;
	 4	 96	 9.55174e-05	 0.00163129	 0.126967	 1216	 1216	 1216	 0	 0	 1	-30	 30;
	 5	 10	 0.00101106	 0.0181429	 1.29521	 1216	 1216	 1216	 0	 0	 1	-30	 30;
	 5	 75	 2.63036e-05	 0.000470145	 0.0333667	 1216	 1216	 1216	 0	 0	 1	-30	 30;
	 6	 119	 0.0136967	 0.0412287	 0.0128998	 142	 142	 142	 0	 0	 1	-30	 30;
	 6	 121	 0.00333072	 0.01499	 0.00297684	 159	 159	 159	 0	 0	 1	-30	 30;
	 6	 123	 0.00506221	 0.0160738	 0.00450925	 144	 144	 144	 0	 0	 1	-30	 30;
	 7	 23	 0.000113699	 0.00203232	 0.144246	 1216	 1216	 1216	 0	 0	 1	-30	 30;
	 7	 44	 0.00117833	 0.0219441	 1.46043	 1216	 1216	 1216	 0	 0	 1	-30	 30;
	 7	 75	 0.000463885	 0.00829815	 0.589646	 1216	 1216	 1216	 0	 0	 1	-30	 30;
	 8	 9	 0.108278	 0.326023	 0.00637774	 71	 71	 71	 0	 0	 1	-30	 30;
	 8	 47	 0.132789	 0.325145	 0.00556151	 59	 59	 59	 0	 0	 1	-30	 30;
	 8	 49	 0.0628983	 0.153969	 0.00263278	 59	 59	 59	 0	 0	 1	-30	 30;
	 8	 53	 0.13014	 0.308273	 0.00563831	 59	 59	 59	 0	 0	 1	-30	 30;
	 10	 44	 0.00155972	 0.0281487	 2.02658	 1216	 1216	 1216	 0	 0	 1	-30	 30;
	 11	 13	 0.00212411	 0.00639323	 0.0020001	 142	 142	 142	 0	 0	 1	-30	 30;
	 11	 22	 0.00396795	 0.01084	 0.00294582	 128	 128	 128	 0	 0	 1	-30	 30;
	 12	 13	 0.00393187	 0.0103913	 0.00243223	 118	 118	 118	 0	 0	 1	-30	 30;
	 12	 119	 0.0112703	 0.0292598	 0.007102	 118	 118	 118	 0	 0	 1	-30	 30;
	 14	 15	 0.00934523	 0.0381933	 0.000772614	 88	 88	 88	 0	 0	 1	-30	 30;
	 15	 24	 0.0368111	 0.0972874	 0.00142326	 59	 59	 59	 0	 0	 1	-30	 30;
	 16	 17	 0.0249925	 0.0752247	 0.00147089	 71	 71	 71	 0	 0	 1	-30	 30;
	 16	 24	 0.0205525	 0.0486682	 0.000889811	 59	 59	 59	 0	 0	 1	-30	 30;
	 17	 19	 0.0192951	 0.0437674	 0.000873132	 59	 59	 59	 0	 0	 1	-30	 30;
	 18	 19	 0.0178255	 0.0566003	 0.00099239	 71	 71	 71	 0	 0	 1	-30	 30;
	 18	 107	 0.0583915	 0.138279	 0.00252835	 59	 59	 59	 0	 0	 1	-30	 30;
	 18	 113	 0.0157774	 0.0366233	 0.000697333	 59	 59	 59	 0	 0	 1	-30	 30;
	 19	 182	 0.0214689	 0.0508384	 0.000929489	 59	 59	 59	 0	 0	 1	-30	 30;
	 20	 21	 0.00618594	 0.0212203	 0.00508375	 142	 142	 142	 0	 0	 1	-30	 30;
	 20	 116	 0.00404861	 0.0124332	 0.00373291	 142	 142	 142	 0	 0	 1	-30	 30;
	 21	 176	 0.00677806	 0.0239584	 0.00539866	 142	 142	 142	 0	 0	 1	-30	 30;
	 22	 176	 0.00657746	 0.0229232	 0.00531535	 142	 142	 142	 0	 0	 1	-30	 30;
	 24	 25	 0.0423942	 0.112044	 0.00163915	 59	 59	 59	 0	 0	 1	-30	 30;
	 28	 152	 0.00141729	 0.00981414	 0.383509	 795	 795	 795	 0	 0	 1	-30	 30;
	 29	 148	 0.0170714	 0.047887	 0.000770358	 64	 64	 64	 0	 0	 1	-30	 30;
	 29	 150	 0.0560057	 0.127046	 0.00253464	 59	 59	 59	 0	 0	 1	-30	 30;
	 32	 33	 0.0514391	 0.121813	 0.00222724	 59	 59	 59	 0	 0	 1	-30	 30;
	 33	 38	 0.0630024	 0.169152	 0.00239616	 59	 59	 59	 0	 0	 1	-30	 30;
	 33	 39	 0.076951	 0.178643	 0.00340193	 59	 59	 59	 0	 0	 1	-30	 30;
	 34	 40	 0.0281073	 0.0687998	 0.00117635	 59	 59	 59	 0	 0	 1	-30	 30;
	 35	 151	 0.0491936	 0.132073	 0.00187085	 59	 59	 59	 0	 0	 1	-30	 30;
	 36	 42	 0.0111109	 0.034731	 0.0100603	 142	 142	 142	 0	 0	 1	-30	 30;
	 36	 130	 0.0113922	 0.0319575	 0.00822603	 128	 128	 128	 0	 0	 1	-30	 30;
	 37	 105	 0.104109	 0.275197	 0.00402686	 59	 59	 59	 0	 0	 1	-30	 30;
	 39	 154	 0.0611683	 0.149734	 0.00256034	 59	 59	 59	 0	 0	 1	-30	 30;
	 40	 158	 0.036805	 0.131487	 0.00261067	 80	 80	 80	 0	 0	 1	-30	 30;
	 41	 42	 0.0139534	 0.0455142	 0.0120845	 142	 142	 142	 0	 0	 1	-30	 30;
	 43	 48	 0.0757063	 0.175753	 0.00334687	 59	 59	 59	 0	 0	 1	-30	 30;
	 44	 152	 1e-07	 0.0001	 0	 1200	 1500	 1800	 0	 0	 1	-30	 30;
	 44	 152	 1e-07	 0.0001	 0	 1200	 1500	 1800	 0	 0	 1	-30	 30;
	 46	 48	 0.084037	 0.205727	 0.00351806	 59	 59	 59	 0	 0	 1	-30	 30;
	 46	 49	 0.0525891	 0.143184	 0.00197167	 59	 59	 59	 0	 0	 1	-30	 30;
	 49	 155	 0.0279455	 0.109142	 0.00242035	 88	 88	 88	 0	 0	 1	-30	 30;
	 50	 52	 0.0243173	 0.0652951	 0.0148011	 118	 118	 118	 0	 0	 1	-30	 30;
	 52	 54	 0.0119228	 0.0378603	 0.0106219	 142	 142	 142	 0	 0	 1	-30	 30;
	 53	 77	 0.0921409	 0.280894	 0.00307699	 59	 59	 59	 0	 0	 1	-30	 30;
	 53	 156	 0.0246096	 0.0582755	 0.00106547	 59	 59	 59	 0	 0	 1	-30	 30;
	 54	 55	 0.00758524	 0.0194989	 0.00482838	 118	 118	 118	 0	 0	 1	-30	 30;
	 55	 57	 0.00686717	 0.0181489	 0.00424807	 118	 118	 118	 0	 0	 1	-30	 30;
	 56	 157	 0.0204342	 0.0513664	 0.000831704	 59	 59	 59	 0	 0	 1	-30	 30;
	 57	 160	 0.00767134	 0.0246005	 0.00973999	 159	 159	 159	 0	 0	 1	-30	 30;
	 58	 76	 0.09384	 0.217864	 0.00414908	 59	 59	 59	 0	 0	 1	-30	 30;
	 58	 186	 0.0982966	 0.240648	 0.00411547	 59	 59	 59	 0	 0	 1	-30	 30;
	 61	 175	 0.0627597	 0.180191	 0.00222795	 59	 59	 59	 0	 0	 1	-30	 30;
	 62	 63	 0.0455363	 0.139858	 0.00150869	 59	 59	 59	 0	 0	 1	-30	 30;
	 63	 64	 0.0736228	 0.180227	 0.00308187	 59	 59	 59	 0	 0	 1	-30	 30;
	 64	 159	 0.0435058	 0.109366	 0.00177087	 59	 59	 59	 0	 0	 1	-30	 30;
	 66	 68	 0.000154603	 0.0011051	 0.0403983	 795	 795	 795	 0	 0	 1	-30	 30;
	 67	 165	 0.0145899	 0.0385586	 0.000564075	 59	 59	 59	 0	 0	 1	-30	 30;
	 67	 169	 0.0336094	 0.0780173	 0.00148553	 59	 59	 59	 0	 0	 1	-30	 30;
	 68	 80	 0.000103473	 0.000716055	 0.0279556	 795	 795	 795	 0	 0	 1	-30	 30;
	 69	 70	 0.00239867	 0.00709882	 0.00132045	 118	 118	 118	 0	 0	 1	-30	 30;
	 70	 71	 0.00298212	 0.00692224	 0.00210886	 118	 118	 118	 0	 0	 1	-30	 30;
	 71	 74	 0.00298448	 0.00801228	 0.00181584	 118	 118	 118	 0	 0	 1	-30	 30;
	 75	 78	 0.000100166	 0.00179042	 0.127074	 1216	 1216	 1216	 0	 0	 1	-30	 30;
	 76	 77	 0.0276335	 0.062682	 0.00125048	 59	 59	 59	 0	 0	 1	-30	 30;
	 77	 171	 0.0372282	 0.110179	 0.00128094	 59	 59	 59	 0	 0	 1	-30	 30;
	 83	 84	 0.0225618	 0.0614263	 0.000845807	 59	 59	 59	 0	 0	 1	-30	 30;
	 83	 85	 0.0182407	 0.0446484	 0.000763397	 59	 59	 59	 0	 0	 1	-30	 30;
	 85	 86	 0.0182683	 0.054065	 0.000628544	 59	 59	 59	 0	 0	 1	-30	 30;
	 87	 178	 0.0287047	 0.0737893	 0.00114199	 59	 59	 59	 0	 0	 1	-30	 30;
	 88	 90	 0.00594359	 0.0149407	 0.00387064	 118	 118	 118	 0	 0	 1	-30	 30;
	 88	 102	 0.00668346	 0.0181963	 0.00400888	 118	 118	 118	 0	 0	 1	-30	 30;
	 89	 97	 0.036141	 0.0838943	 0.00159744	 59	 59	 59	 0	 0	 1	-30	 30;
	 89	 174	 0.0208701	 0.0502933	 0.000887482	 59	 59	 59	 0	 0	 1	-30	 30;
	 91	 92	 0.011791	 0.0267457	 0.000533556	 59	 59	 59	 0	 0	 1	-30	 30;
	 92	 174	 0.0203866	 0.0516393	 0.00102281	 64	 64	 64	 0	 0	 1	-30	 30;
	 93	 94	 0.0159283	 0.0389882	 0.000666617	 59	 59	 59	 0	 0	 1	-30	 30;
	 94	 175	 0.0487607	 0.149753	 0.00281034	 71	 71	 71	 0	 0	 1	-30	 30;
	 95	 176	 0.0178662	 0.041476	 0.0126371	 118	 118	 118	 0	 0	 1	-30	 30;
	 97	 177	 0.0356369	 0.0956746	 0.00135522	 59	 59	 59	 0	 0	 1	-30	 30;
	 99	 184	 0.0389065	 0.0952348	 0.00162837	 59	 59	 59	 0	 0	 1	-30	 30;
	 101	 102	 0.00547606	 0.0168169	 0.00504912	 142	 142	 142	 0	 0	 1	-30	 30;
	 101	 103	 0.007993	 0.0260703	 0.00692134	 142	 142	 142	 0	 0	 1	-30	 30;
	 104	 123	 0.00401047	 0.0152441	 0.00426725	 159	 159	 174.9	 0	 0	 1	-30	 30;
	 106	 127	 0.0239112	 0.063204	 0.0147969	 118	 118	 118	 0	 0	 1	-30	 30;
	 108	 128	 0.0466041	 0.120993	 0.00183548	 59	 59	 59	 0	 0	 1	-30	 30;
	 109	 131	 0.0027899	 0.00754368	 0.00168534	 118	 118	 118	 0	 0	 1	-30	 30;
	 110	 122	 0.0363702	 0.0890262	 0.0015222	 59	 59	 59	 0	 0	 1	-30	 30;
	 110	 181	 0.0177986	 0.0421468	 0.000770576	 59	 59	 59	 0	 0	 1	-30	 30;
	 110	 188	 0.0149001	 0.0440966	 0.000512652	 59	 59	 59	 0	 0	 1	-30	 30;
	 111	 126	 0.00684802	 0.0162162	 0.00474377	 118	 118	 118	 0	 0	 1	-30	 30;
	 111	 131	 0.00407351	 0.00997084	 0.00272769	 118	 118	 118	 0	 0	 1	-30	 30;
	 113	 188	 0.0243836	 0.0721634	 0.000838956	 59	 59	 59	 0	 0	 1	-30	 30;
	 114	 115	 0.0104176	 0.0246686	 0.000451018	 59	 59	 59	 0	 0	 1	-30	 30;
	 114	 182	 0.0213416	 0.0505369	 0.000923977	 59	 59	 59	 0	 0	 1	-30	 30;
	 114	 188	 0.00842995	 0.022951	 0.00031602	 59	 59	 59	 0	 0	 1	-30	 30;
	 116	 131	 0.00601535	 0.0161492	 0.00365997	 118	 118	 118	 0	 0	 1	-30	 30;
	 117	 118	 0.0084207	 0.0206115	 0.000352412	 59	 59	 59	 0	 0	 1	-30	 30;
	 118	 183	 0.0124499	 0.0435623	 0.00090226	 80	 80	 80	 0	 0	 1	-30	 30;
	 120	 121	 0.00583409	 0.0200133	 0.00479457	 142	 142	 142	 0	 0	 1	-30	 30;
	 120	 131	 0.00891085	 0.0218117	 0.00596711	 118	 118	 118	 0	 0	 1	-30	 30;
	 124	 126	 0.005475	 0.0178572	 0.00474075	 142	 142	 142	 0	 0	 1	-30	 30;
	 124	 130	 0.0130697	 0.0314972	 0.00889331	 118	 118	 118	 0	 0	 1	-30	 30;
	 126	 127	 0.00709773	 0.0164758	 0.00501944	 118	 118	 118	 0	 0	 1	-30	 30;
	 127	 131	 0.0130471	 0.0350287	 0.00793909	 118	 118	 118	 0	 0	 1	-30	 30;
	 132	 41	 0.0106601	 0.0387843	 0.0118744	 159	 159	 159	 0	 0	 1	-30	 30;
	 132	 50	 0.00526242	 0.0194578	 0.00576434	 159	 159	 159	 0	 0	 1	-30	 30;
	 132	 52	 0.0137274	 0.0521851	 0.0146105	 159	 159	 159	 0	 0	 1	-30	 30;
	 132	 60	 0.0139889	 0.0444223	 0.0124634	 142	 142	 142	 0	 0	 1	-30	 30;
	 133	 51	 0.0192449	 0.056738	 0.000824926	 64	 64	 64	 0	 0	 1	-30	 30;
	 133	 59	 0.0199383	 0.0583948	 0.00069341	 59	 59	 59	 0	 0	 1	-30	 30;
	 134	 74	 0.001973	 0.007296	 0.002161	 222	 222	 222	 0	 0	 1	-30	 30;
	 135	 66	 8.23282e-05	 0.000603765	 0.0209495	 795	 795	 795	 0	 0	 1	-30	 30;
	 136	 162	 0.000152564	 0.00106064	 0.00929995	 549	 549	 549	 0	 0	 1	-30	 30;
	 136	 167	 0.000781544	 0.00562539	 0.0459747	 549	 549	 549	 0	 0	 1	-30	 30;
	 137	 81	 0.0188869	 0.0507049	 0.000718214	 59	 59	 59	 0	 0	 1	-30	 30;
	 137	 165	 0.0111775	 0.0273595	 0.000467789	 59	 59	 59	 0	 0	 1	-30	 30;
	 138	 98	 0.0224848	 0.0818003	 0.00156515	 80	 80	 80	 0	 0	 1	-30	 30;
	 139	 74	 0.00270684	 0.00810584	 0.00182593	 128	 128	 128	 0	 0	 1	-30	 30;
	 139	 104	 0.00312107	 0.0162298	 0.00562925	 205	 205	 205	 0	 0	 1	-30	 30;
	 139	 125	 0.0158687	 0.0503932	 0.0141391	 142	 142	 142	 0	 0	 1	-30	 30;
	 139	 168	 0.00256219	 0.0083567	 0.00221851	 142	 142	 142	 0	 0	 1	-30	 30;
	 140	 72	 0.0671593	 0.177505	 0.00259698	 59	 59	 59	 0	 0	 1	-30	 30;
	 140	 122	 0.0289171	 0.0918206	 0.00160995	 71	 71	 71	 0	 0	 1	-30	 30;
	 141	 15	 0.00854987	 0.0444596	 0.000963779	 103	 103	 103	 0	 0	 1	-30	 30;
	 141	 16	 0.0384655	 0.11578	 0.00226396	 77	 77	 77	 0	 0	 1	-30	 30;
	 141	 26	 0.0608083	 0.156325	 0.00241951	 59	 59	 59	 0	 0	 1	-30	 30;
	 141	 27	 0.112954	 0.29859	 0.00436935	 59	 59	 59	 0	 0	 1	-30	 30;
	 142	 14	 0.00788463	 0.0269332	 0.000585641	 80	 80	 80	 0	 0	 1	-30	 30;
	 142	 19	 0.0466304	 0.125191	 0.00177335	 59	 59	 59	 0	 0	 1	-30	 30;
	 143	 62	 0.0591554	 0.140088	 0.00256144	 59	 59	 59	 0	 0	 1	-30	 30;
	 143	 98	 0.0581001	 0.153558	 0.00224656	 59	 59	 59	 0	 0	 1	-30	 30;
	 144	 30	 0.00169698	 0.0089687	 0.0162428	 308	 308	 308	 0	 0	 1	-30	 30;
	 145	 31	 0.00525809	 0.0179614	 0.00624907	 159	 159	 159	 0	 0	 1	-30	 30;
	 145	 131	 0.0474172	 0.150736	 0.042349	 142	 142	 142	 0	 0	 1	-30	 30;
	 146	 32	 0.0374126	 0.0915779	 0.00156583	 59	 59	 59	 0	 0	 1	-30	 30;
	 146	 35	 0.0433488	 0.106109	 0.00181432	 59	 59	 59	 0	 0	 1	-30	 30;
	 146	 40	 0.0718201	 0.220598	 0.00237982	 59	 59	 59	 0	 0	 1	-30	 30;
	 147	 31	 0.00393245	 0.00988515	 0.00256089	 118	 118	 118	 0	 0	 1	-30	 30;
	 147	 36	 0.0186015	 0.0440527	 0.0128883	 118	 118	 118	 0	 0	 1	-30	 30;
	 147	 106	 0.0363104	 0.118508	 0.0314886	 142	 142	 142	 0	 0	 1	-30	 30;
	 148	 35	 0.0576422	 0.141101	 0.0024127	 59	 59	 59	 0	 0	 1	-30	 30;
	 148	 149	 0.0157298	 0.040836	 0.000619461	 59	 59	 59	 0	 0	 1	-30	 30;
	 149	 32	 0.026111	 0.0795885	 0.000871675	 59	 59	 59	 0	 0	 1	-30	 30;
	 149	 37	 0.0118935	 0.148946	 0.00196683	 154	 154	 154	 0	 0	 1	-30	 30;
	 150	 129	 0.0674619	 0.199669	 0.00232153	 59	 59	 59	 0	 0	 1	-30	 30;
	 151	 58	 0.0875314	 0.207304	 0.0037908	 59	 59	 59	 0	 0	 1	-30	 30;
	 151	 155	 0.099645	 0.243951	 0.00417197	 59	 59	 59	 0	 0	 1	-30	 30;
	 153	 45	 0.0141129	 0.0320144	 0.0102193	 118	 118	 118	 0	 0	 1	-30	 30;
	 153	 60	 0.0270314	 0.0714551	 0.0167295	 118	 118	 118	 0	 0	 1	-30	 30;
	 154	 158	 0.053035	 0.142388	 0.00201697	 59	 59	 59	 0	 0	 1	-30	 30;
	 155	 51	 0.0261384	 0.0639802	 0.00109394	 59	 59	 59	 0	 0	 1	-30	 30;
	 156	 58	 0.0505864	 0.127167	 0.00205914	 59	 59	 59	 0	 0	 1	-30	 30;
	 156	 157	 0.0550604	 0.13478	 0.00230461	 59	 59	 59	 0	 0	 1	-30	 30;
	 160	 69	 0.00377677	 0.00970857	 0.00240403	 118	 118	 118	 0	 0	 1	-30	 30;
	 160	 70	 0.00403151	 0.0106546	 0.00249386	 118	 118	 118	 0	 0	 1	-30	 30;
	 161	 67	 0.00822952	 0.0194873	 0.000356288	 74	 74	 74	 0	 0	 1	-30	 30;
	 161	 84	 0.0209281	 0.103391	 0.00188733	 95	 95	 95	 0	 0	 1	-30	 30;
	 161	 166	 0.016126	 0.0432928	 0.000613223	 59	 59	 59	 0	 0	 1	-30	 30;
	 161	 171	 0.0206687	 0.0505915	 0.000865014	 79	 79	 79	 0	 0	 1	-30	 30;
	 163	 69	 0.00361534	 0.00955471	 0.00223642	 118	 118	 118	 0	 0	 1	-30	 30;
	 164	 79	 0.0126952	 0.0310742	 0.000531304	 59	 59	 59	 0	 0	 1	-30	 30;
	 164	 81	 0.0133722	 0.0327315	 0.00055964	 59	 59	 59	 0	 0	 1	-30	 30;
	 165	 82	 0.0171726	 0.0406644	 0.000743473	 59	 59	 59	 0	 0	 1	-30	 30;
	 166	 72	 0.0194282	 0.0475549	 0.000813093	 59	 59	 59	 0	 0	 1	-30	 30;
	 167	 100	 0.00200846	 0.0139671	 0.122518	 549	 549	 549	 0	 0	 1	-30	 30;
	 168	 74	 0.00491413	 0.0127576	 0.00309642	 118	 118	 118	 0	 0	 1	-30	 30;
	 168	 103	 0.00559902	 0.0200019	 0.00635386	 159	 159	 159	 0	 0	 1	-30	 30;
	 169	 86	 0.0151265	 0.074586	 0.00126046	 92	 92	 92	 0	 0	 1	-30	 30;
	 169	 170	 0.0251466	 0.058372	 0.00111145	 59	 59	 59	 0	 0	 1	-30	 30;
	 169	 173	 0.143809	 0.425767	 0.00495221	 59	 59	 59	 0	 0	 1	-30	 30;
	 169	 178	 0.0967268	 0.275278	 0.00346612	 59	 59	 59	 0	 0	 1	-30	 30;
	 170	 76	 0.0301805	 0.0738745	 0.00126312	 59	 59	 59	 0	 0	 1	-30	 30;
	 172	 89	 0.0205085	 0.053242	 0.000807657	 59	 59	 59	 0	 0	 1	-30	 30;
	 173	 91	 0.00861934	 0.0210977	 0.000360726	 59	 59	 59	 0	 0	 1	-30	 30;
	 173	 93	 0.0250415	 0.0592984	 0.00108417	 59	 59	 59	 0	 0	 1	-30	 30;
	 174	 98	 0.0186832	 0.0890464	 0.00161217	 92	 92	 92	 0	 0	 1	-30	 30;
	 179	 107	 0.055634	 0.149366	 0.00211584	 59	 59	 59	 0	 0	 1	-30	 30;
	 179	 108	 0.00723746	 0.0177152	 0.000302893	 59	 59	 59	 0	 0	 1	-30	 30;
	 180	 115	 0.00734458	 0.017699	 0.000312316	 59	 59	 59	 0	 0	 1	-30	 30;
...
];

mpc_regionR1.gencost = [
%	2           startup     shutdown    n           c(n-1)...c0 
	 2	 0	 0	 3	 0	 11.54	-3.248;
	 2	 0	 0	 3	 0	 11.59	-4.495;
	 2	 0	 0	 3	 0	 11.59	-4.543;
	 2	 0	 0	 3	 0	 0.005556	 0;
	 2	 0	 0	 3	 0	 0.005556	 0;
	 2	 0	 0	 3	 0	 0.005556	 0;
	 2	 0	 0	 3	 0	 0.005556	 0;
	 2	 0	 0	 3	 0	 0.005556	 0;
	 2	 0	 0	 3	 0	 0.005556	 0;
	 2	 0	 0	 3	 0	 0.005556	 0;
	 2	 0	 0	 3	 0	 0.005556	 0;
	 2	 0	 0	 3	 0	 0.005556	 0;
	 2	 0	 0	 3	 0	 0.005556	 0;
	 2	 0	 0	 3	 0	 0.005556	 0;
	 2	 0	 0	 3	 0	 19.05	-137.2;
	 2	 0	 0	 3	 0	 19.05	-137.2;
	 2	 0	 0	 3	 0	 19.05	-137.2;
	 2	 0	 0	 3	 0	 19.05	-137.2;
	 2	 0	 0	 3	 0	 17.31	 0;
	 2	 0	 0	 3	 0	 17.31	 0;
	 2	 0	 0	 3	 0	 17.31	 0;
	 2	 0	 0	 3	 0	 17.31	 0;
	 2	 0	 0	 3	 0	 17.31	 0;
	 2	 0	 0	 3	 0	 17.31	 0;
	 2	 0	 0	 3	 0	 17.31	 0;
	 2	 0	 0	 3	 0	 17.31	 0;
	 2	 0	 0	 3	 0	 17.31	 0;
	 2	 0	 0	 3	 0	 17.31	 0;
	 2	 0	 0	 3	 0	 17.31	 0;
	 2	 0	 0	 3	 0	 17.31	 0;
	 2	 0	 0	 3	 0	 17.31	 0;
	 2	 0	 0	 3	 0	 17.31	 0;
	 2	 0	 0	 3	 0	 17.31	 0;
	 2	 0	 0	 3	 0	 17.31	 0;
	 2	 0	 0	 3	 0	 17.31	 0;
	 2	 0	 0	 3	 0	 17.31	 0;
	 2	 0	 0	 3	 0	 17.31	 0;
	 2	 0	 0	 3	 0	 43.88	-80.4;
	 2	 0	 0	 3	 0	 11.43	-3.804;
	 2	 0	 0	 3	 0	 13.46	-2.326;
	 2	 0	 0	 3	 0	 13.46	-2.326;
	 2	 0	 0	 3	 0	 16.97	-3.245;
	 2	 0	 0	 3	 0	 16.95	-2.671;
];


% -------------------- mpc_regionR2 --------------------

mpc_regionR2.version = '2';
mpc_regionR2.baseMVA = 100.0000;
mpc_regionR2.bus = [
%	bus_i       type        Pd          Qd          Gs          Bs          area        Vm          Va          baseKV      zone        Vmax        Vmin        
	 1	 1	 0	 0	 0	 0	 1	 1	 0	 500	 1	 1.1	 0.9;
	 2	 2	 0	 0	 0	 0	 1	 1	 0	 500	 1	 1.1	 0.9;
	 3	 2	 0	 0	 0	 0	 1	 1	 0	 138	 1	 1.1	 0.9;
	 4	 1	 0	 0	 0	 0	 1	 1	 0	 500	 1	 1.1	 0.9;
	 5	 1	 0	 0	 0	 0	 1	 1	 0	 500	 1	 1.1	 0.9;
	 6	 2	 0	 0	 0	 0	 1	 1	 0	 500	 1	 1.1	 0.9;
	 7	 2	 0	 0	 0	 0	 1	 1	 0	 138	 1	 1.1	 0.9;
	 8	 2	 0	 0	 0	 0	 1	 1	 0	 138	 1	 1.1	 0.9;
	 9	 1	 0	 0	 0	 0	 1	 1	 0	 138	 1	 1.1	 0.9;
	 10	 1	 0	 0	 0	 0	 1	 1	 0	 230	 1	 1.1	 0.9;
	 11	 2	 0	 0	 0	 0	 1	 1	 0	 138	 1	 1.1	 0.9;
	 12	 2	 0	 0	 0	 0	 1	 1	 0	 138	 1	 1.1	 0.9;
	 13	 2	 0	 0	 0	 0	 1	 1	 0	 138	 1	 1.1	 0.9;
	 14	 1	 5.561	 2.039	 0	 0	 1	 1	 0	 69	 1	 1.1	 0.9;
	 15	 1	 0	 0	 0	 0	 1	 1	 0	 138	 1	 1.1	 0.9;
	 16	 1	 0	 0	 0	 0	 1	 1	 0	 138	 1	 1.1	 0.9;
	 17	 1	 5.839	 2.132	 0	 0	 1	 1	 0	 69	 1	 1.1	 0.9;
	 18	 1	 3.244	 1.39	 0	 0	 1	 1	 0	 138	 1	 1.1	 0.9;
	 19	 1	 0	 0	 0	 0	 1	 1	 0	 138	 1	 1.1	 0.9;
	 20	 1	 12.512	 5.098	 0	 0	 1	 1	 0	 69	 1	 1.1	 0.9;
	 21	 1	 4.634	 1.854	 0	 0	 1	 1	 0	 69	 1	 1.1	 0.9;
	 22	 1	 3.244	 1.39	 0	 0	 1	 1	 0	 69	 1	 1.1	 0.9;
	 23	 1	 12.883	 3.985	 0	 0	 1	 1	 0	 69	 1	 1.1	 0.9;
	 24	 1	 0	 0	 0	 0	 1	 1	 0	 138	 1	 1.1	 0.9;
	 25	 1	 0	 0	 0	 0	 1	 1	 0	 138	 1	 1.1	 0.9;
	 26	 1	 6.395	 2.873	 0	 0	 1	 1	 0	 69	 1	 1.1	 0.9;
	 27	 1	 7.878	 2.781	 0	 0	 1	 1	 0	 69	 1	 1.1	 0.9;
	 28	 1	 0	 0	 0	 0	 1	 1	 0	 500	 1	 1.1	 0.9;
	 29	 1	 0	 0	 0	 0	 1	 1	 0	 230	 1	 1.1	 0.9;
	 30	 1	 8.063	 2.781	 0	 0	 1	 1	 0	 69	 1	 1.1	 0.9;
	 31	 1	 0	 0	 0	 0	 1	 1	 0	 138	 1	 1.1	 0.9;
	 32	 1	 17.054	 5.283	 0	 0	 1	 1	 0	 69	 1	 1.1	 0.9;
	 33	 1	 13.439	 4.912	 0	 0	 1	 1	 0	 69	 1	 1.1	 0.9;
	 34	 1	 4.356	 1.761	 0	 0	 1	 1	 0	 69	 1	 1.1	 0.9;
	 35	 1	 8.249	 3.337	 0	 0	 1	 1	 0	 69	 1	 1.1	 0.9;
	 36	 1	 15.664	 3.337	 0	 23.9999994391	 1	 1	 0	 69	 1	 1.1	 0.9;
	 37	 1	 5.283	 0.927	 0	 0	 1	 1	 0	 69	 1	 1.1	 0.9;
	 38	 1	 17.888	 4.449	 0	 0	 1	 1	 0	 69	 1	 1.1	 0.9;
	 39	 1	 10.844	 4.171	 0	 0	 1	 1	 0	 69	 1	 1.1	 0.9;
	 40	 1	 3.059	 1.298	 0	 0	 1	 1	 0	 69	 1	 1.1	 0.9;
	 41	 1	 6.488	 2.781	 0	 0	 1	 1	 0	 69	 1	 1.1	 0.9;
	 42	 1	 0	 0	 0	 0	 1	 1	 0	 138	 1	 1.1	 0.9;
	 43	 1	 0	 0	 0	 0	 1	 1	 0	 345	 1	 1.1	 0.9;
	 44	 1	 0	 0	 0	 0	 1	 1	 0	 138	 1	 1.1	 0.9;
	 45	 1	 12.42	 5.839	 0	 0	 1	 1	 0	 69	 1	 1.1	 0.9;
	 46	 1	 12.605	 4.634	 0	 0	 1	 1	 0	 69	 1	 1.1	 0.9;
	 47	 1	 3.429	 1.483	 0	 0	 1	 1	 0	 69	 1	 1.1	 0.9;
	 48	 1	 7.971	 3.615	 0	 0	 1	 1	 0	 69	 1	 1.1	 0.9;
	 49	 1	 0	 0	 0	 0	 1	 1	 0	 138	 1	 1.1	 0.9;
	 50	 1	 4.541	 1.854	 0	 0	 1	 1	 0	 69	 1	 1.1	 0.9;
	 51	 1	 16.498	 6.673	 0	 0	 1	 1	 0	 69	 1	 1.1	 0.9;
	 52	 1	 5.283	 2.502	 0	 0	 1	 1	 0	 69	 1	 1.1	 0.9;
	 53	 1	 2.132	 0.927	 0	 0	 1	 1	 0	 69	 1	 1.1	 0.9;
	 54	 1	 13.532	 5.468	 0	 0	 1	 1	 0	 69	 1	 1.1	 0.9;
	 55	 1	 0	 0	 0	 0	 1	 1	 0	 138	 1	 1.1	 0.9;
	 56	 1	 10.566	 4.449	 0	 0	 1	 1	 0	 69	 1	 1.1	 0.9;
	 57	 1	 13.346	 5.839	 0	 0	 1	 1	 0	 69	 1	 1.1	 0.9;
	 58	 1	 20.02	 8.434	 0	 0	 1	 1	 0	 69	 1	 1.1	 0.9;
	 59	 1	 0	 0	 0	 0	 1	 1	 0	 500	 1	 1.1	 0.9;
	 60	 1	 0	 0	 0	 0	 1	 1	 0	 500	 1	 1.1	 0.9;
	 61	 1	 3.707	 1.668	 0	 0	 1	 1	 0	 69	 1	 1.1	 0.9;
	 62	 1	 6.951	 2.873	 0	 0	 1	 1	 0	 138	 1	 1.1	 0.9;
	 63	 1	 0	 0	 0	 0	 1	 1	 0	 138	 1	 1.1	 0.9;
	 64	 1	 10.195	 3.337	 0	 0	 1	 1	 0	 69	 1	 1.1	 0.9;
	 65	 1	 0	 0	 0	 0	 1	 1	 0	 138	 1	 1.1	 0.9;
	 66	 1	 3.985	 1.761	 0	 0	 1	 1	 0	 138	 1	 1.1	 0.9;
	 67	 1	 15.015	 4.727	 0	 0	 1	 1	 0	 138	 1	 1.1	 0.9;
	 68	 1	 0	 0	 0	 0	 1	 1	 0	 138	 1	 1.1	 0.9;
	 69	 1	 12.142	 3.893	 0	 0	 1	 1	 0	 138	 1	 1.1	 0.9;
	 70	 1	 0	 0	 0	 0	 1	 1	 0	 138	 1	 1.1	 0.9;
	 71	 1	 17.888	 6.395	 0	 0	 1	 1	 0	 69	 1	 1.1	 0.9;
	 72	 1	 8.249	 2.966	 0	 0	 1	 1	 0	 69	 1	 1.1	 0.9;
	 73	 1	 5.283	 2.132	 0	 0	 1	 1	 0	 69	 1	 1.1	 0.9;
	 74	 1	 7.229	 3.151	 0	 0	 1	 1	 0	 69	 1	 1.1	 0.9;
	 75	 1	 0	 0	 0	 0	 1	 1	 0	 138	 1	 1.1	 0.9;
	 76	 1	 16.312	 6.21	 0	 0	 1	 1	 0	 138	 1	 1.1	 0.9;
	 77	 1	 12.883	 4.912	 0	 0	 1	 1	 0	 138	 1	 1.1	 0.9;
	 78	 1	 15.571	 7.044	 0	 0	 1	 1	 0	 138	 1	 1.1	 0.9;
	 79	 1	 0	 0	 0	 0	 1	 1	 0	 500	 1	 1.1	 0.9;
	 80	 1	 8.898	 3.615	 0	 0	 1	 1	 0	 69	 1	 1.1	 0.9;
	 81	 1	 3.429	 1.39	 0	 0	 1	 1	 0	 69	 1	 1.1	 0.9;
	 82	 1	 0	 0	 0	 0	 1	 1	 0	 500	 1	 1.1	 0.9;
	 83	 1	 0	 0	 0	 0	 1	 1	 0	 138	 1	 1.1	 0.9;
	 84	 1	 0	 0	 0	 0	 1	 1	 0	 138	 1	 1.1	 0.9;
	 85	 1	 5.839	 2.781	 0	 0	 1	 1	 0	 69	 1	 1.1	 0.9;
	 86	 1	 9.732	 4.634	 0	 0	 1	 1	 0	 69	 1	 1.1	 0.9;
	 87	 1	 6.766	 3.059	 0	 0	 1	 1	 0	 69	 1	 1.1	 0.9;
	 88	 1	 3.522	 1.576	 0	 0	 1	 1	 0	 500	 1	 1.1	 0.9;
	 89	 1	 2.41	 1.112	 0	 0	 1	 1	 0	 69	 1	 1.1	 0.9;
	 90	 1	 0	 0	 0	 0	 1	 1	 0	 138	 1	 1.1	 0.9;
	 91	 1	 9.176	 3.244	 0	 0	 1	 1	 0	 69	 1	 1.1	 0.9;
	 92	 1	 11.493	 4.449	 0	 0	 1	 1	 0	 69	 1	 1.1	 0.9;
	 93	 1	 9.917	 4.171	 0	 0	 1	 1	 0	 69	 1	 1.1	 0.9;
	 94	 1	 6.488	 2.688	 0	 0	 1	 1	 0	 69	 1	 1.1	 0.9;
	 95	 1	 0	 0	 0	 0	 1	 1	 0	 138	 1	 1.1	 0.9;
	 96	 1	 0	 0	 0	 0	 1	 1	 0	 138	 1	 1.1	 0.9;
	 97	 1	 0	 0	 0	 0	 1	 1	 0	 138	 1	 1.1	 0.9;
	 98	 1	 0	 0	 0	 0	 1	 1	 0	 138	 1	 1.1	 0.9;
	 99	 1	 110.757	 39.576	 0	 0	 1	 1	 0	 500	 1	 1.1	 0.9;
	 100	 1	 0	 0	 0	 0	 1	 1	 0	 138	 1	 1.1	 0.9;
	 101	 1	 18.537	 7.322	 0	 0	 1	 1	 0	 138	 1	 1.1	 0.9;
	 102	 1	 8.527	 3.429	 0	 0	 1	 1	 0	 69	 1	 1.1	 0.9;
	 103	 1	 12.049	 4.912	 0	 0	 1	 1	 0	 69	 1	 1.1	 0.9;
	 104	 1	 0	 0	 0	 0	 1	 1	 0	 138	 1	 1.1	 0.9;
	 105	 1	 8.712	 3.893	 0	 0	 1	 1	 0	 69	 1	 1.1	 0.9;
	 106	 1	 10.473	 4.541	 0	 0	 1	 1	 0	 69	 1	 1.1	 0.9;
	 107	 1	 0	 0	 0	 0	 1	 1	 0	 138	 1	 1.1	 0.9;
	 108	 1	 4.82	 2.039	 0	 0	 1	 1	 0	 69	 1	 1.1	 0.9;
	 109	 1	 8.156	 3.893	 0	 0	 1	 1	 0	 138	 1	 1.1	 0.9;
	 110	 1	 10.01	 4.263	 0	 0	 1	 1	 0	 69	 1	 1.1	 0.9;
	 111	 1	 5.654	 2.595	 0	 0	 1	 1	 0	 69	 1	 1.1	 0.9;
	 112	 1	 8.156	 3.707	 0	 0	 1	 1	 0	 138	 1	 1.1	 0.9;
	 113	 1	 0	 0	 0	 0	 1	 1	 0	 138	 1	 1.1	 0.9;
	 114	 1	 0	 0	 0	 0	 1	 1	 0	 500	 1	 1.1	 0.9;
	 115	 1	 8.063	 2.966	 0	 0	 1	 1	 0	 69	 1	 1.1	 0.9;
	 116	 1	 7.878	 3.059	 0	 0	 1	 1	 0	 69	 1	 1.1	 0.9;
	 117	 1	 2.41	 1.02	 0	 0	 1	 1	 0	 138	 1	 1.1	 0.9;
	 118	 1	 6.117	 2.41	 0	 0	 1	 1	 0	 138	 1	 1.1	 0.9;
	 119	 1	 2.688	 1.02	 0	 0	 1	 1	 0	 69	 1	 1.1	 0.9;
	 120	 1	 5.746	 2.781	 0	 0	 1	 1	 0	 69	 1	 1.1	 0.9;
	 121	 1	 10.381	 4.263	 0	 0	 1	 1	 0	 138	 1	 1.1	 0.9;
	 122	 1	 0	 0	 0	 0	 1	 1	 0	 138	 1	 1.1	 0.9;
	 123	 1	 12.79	 4.356	 0	 0	 1	 1	 0	 138	 1	 1.1	 0.9;
	 124	 1	 6.581	 3.059	 0	 0	 1	 1	 0	 138	 1	 1.1	 0.9;
	 125	 1	 5.932	 2.41	 0	 0	 1	 1	 0	 138	 1	 1.1	 0.9;
	 126	 1	 0	 0	 0	 0	 1	 1	 0	 138	 1	 1.1	 0.9;
	 127	 1	 0	 0	 0	 0	 1	 1	 0	 69	 1	 1.1	 0.9;
	 128	 1	 0	 0	 0	 0	 1	 1	 0	 138	 1	 1.1	 0.9;
	 129	 1	 5.839	 2.317	 0	 0	 1	 1	 0	 69	 1	 1.1	 0.9;
	 130	 1	 2.966	 1.205	 0	 0	 1	 1	 0	 138	 1	 1.1	 0.9;
	 131	 1	 0	 0	 0	 0	 1	 1	 0	 138	 1	 1.1	 0.9;
	 132	 1	 10.937	 4.82	 0	 0	 1	 1	 0	 69	 1	 1.1	 0.9;
	 133	 1	 0	 0	 0	 0	 1	 1	 0	 138	 1	 1.1	 0.9;
	 134	 1	 0	 0	 0	 0	 1	 1	 0	 138	 1	 1.1	 0.9;
	 135	 1	 4.541	 1.668	 0	 0	 1	 1	 0	 69	 1	 1.1	 0.9;
	 136	 1	 4.634	 1.668	 0	 0	 1	 1	 0	 69	 1	 1.1	 0.9;
	 137	 1	 3.707	 1.39	 0	 0	 1	 1	 0	 69	 1	 1.1	 0.9;
	 138	 1	 0	 0	 0	 0	 1	 1	 0	 138	 1	 1.1	 0.9;
	 139	 1	 3.8	 1.576	 0	 0	 1	 1	 0	 69	 1	 1.1	 0.9;
	 140	 1	 7.785	 3.337	 0	 0	 1	 1	 0	 69	 1	 1.1	 0.9;
	 141	 1	 8.156	 3.522	 0	 0	 1	 1	 0	 69	 1	 1.1	 0.9;
	 142	 1	 1.298	 0.463	 0	 0	 1	 1	 0	 69	 1	 1.1	 0.9;
	 143	 1	 3.985	 1.483	 0	 0	 1	 1	 0	 69	 1	 1.1	 0.9;
	 144	 1	 6.673	 2.873	 0	 0	 1	 1	 0	 138	 1	 1.1	 0.9;
	 145	 1	 0	 0	 0	 0	 1	 1	 0	 138	 1	 1.1	 0.9;
	 146	 1	 9.454	 3.244	 0	 0	 1	 1	 0	 69	 1	 1.1	 0.9;
	 147	 1	 12.142	 3.522	 0	 0	 1	 1	 0	 69	 1	 1.1	 0.9;
	 148	 1	 5.654	 2.132	 0	 0	 1	 1	 0	 69	 1	 1.1	 0.9;
	 149	 1	 0	 0	 0	 0	 1	 1	 0	 138	 1	 1.1	 0.9;
	 150	 1	 6.488	 2.966	 0	 0	 1	 1	 0	 69	 1	 1.1	 0.9;
	 151	 1	 2.41	 0.927	 0	 0	 1	 1	 0	 69	 1	 1.1	 0.9;
	 152	 1	 0	 0	 0	 0	 1	 1	 0	 138	 1	 1.1	 0.9;
	 153	 1	 7.785	 3.615	 0	 0	 1	 1	 0	 69	 1	 1.1	 0.9;
	 154	 1	 11.771	 4.912	 0	 0	 1	 1	 0	 69	 1	 1.1	 0.9;
	 155	 1	 6.395	 2.688	 0	 0	 1	 1	 0	 69	 1	 1.1	 0.9;
	 156	 1	 0	 0	 0	 0	 1	 1	 0	 69	 1	 1.1	 0.9;
	 157	 1	 4.912	 1.761	 0	 0	 1	 1	 0	 69	 1	 1.1	 0.9;
	 158	 1	 0	 0	 0	 0	 1	 1	 0	 138	 1	 1.1	 0.9;
	 159	 1	 5.839	 2.502	 0	 0	 1	 1	 0	 69	 1	 1.1	 0.9;
	 160	 1	 6.951	 2.873	 0	 0	 1	 1	 0	 69	 1	 1.1	 0.9;
	 161	 1	 10.844	 4.541	 0	 0	 1	 1	 0	 69	 1	 1.1	 0.9;
	 162	 1	 6.024	 2.132	 0	 0	 1	 1	 0	 69	 1	 1.1	 0.9;
	 163	 1	 9.732	 3.522	 0	 0	 1	 1	 0	 69	 1	 1.1	 0.9;
	 164	 1	 0	 0	 0	 0	 1	 1	 0	 138	 1	 1.1	 0.9;
	 165	 1	 19.371	 6.488	 0	 0	 1	 1	 0	 138	 1	 1.1	 0.9;
	 166	 1	 0	 0	 0	 0	 1	 1	 0	 138	 1	 1.1	 0.9;
	 167	 1	 25.025	 10.01	 0	 0	 1	 1	 0	 69	 1	 1.1	 0.9;
	 168	 1	 4.171	 1.946	 0	 0	 1	 1	 0	 69	 1	 1.1	 0.9;
	 169	 1	 20.39	 6.024	 0	 0	 1	 1	 0	 69	 1	 1.1	 0.9;
	 170	 1	 0	 0	 0	 0	 1	 1	 0	 138	 1	 1.1	 0.9;
	 171	 1	 0	 0	 0	 0	 1	 1	 0	 138	 1	 1.1	 0.9;
	 172	 1	 9.546	 3.522	 0	 0	 1	 1	 0	 138	 1	 1.1	 0.9;
	 173	 1	 11.029	 4.82	 0	 0	 1	 1	 0	 69	 1	 1.1	 0.9;
	 174	 1	 8.342	 2.966	 0	 0	 1	 1	 0	 69	 1	 1.1	 0.9;
	 175	 1	 0	 0	 0	 0	 1	 1	 0	 138	 1	 1.1	 0.9;
	 176	 1	 0	 0	 0	 0	 1	 1	 0	 138	 1	 1.1	 0.9;
	 177	 1	 0	 0	 0	 0	 1	 1	 0	 138	 1	 1.1	 0.9;
	 178	 1	 14.829	 5.839	 0	 0	 1	 1	 0	 69	 1	 1.1	 0.9;
	 179	 1	 15.942	 6.951	 0	 0	 1	 1	 0	 69	 1	 1.1	 0.9;
	 180	 1	 0	 0	 0	 0	 1	 1	 0	 138	 1	 1.1	 0.9;
	 181	 1	 12.142	 4.541	 0	 0	 1	 1	 0	 138	 1	 1.1	 0.9;
	 182	 1	 16.405	 4.727	 0	 0	 1	 1	 0	 69	 1	 1.1	 0.9;
	 183	 1	 0	 0	 0	 0	 1	 1	 0	 138	 1	 1.1	 0.9;
	 184	 1	 3.059	 1.205	 0	 0	 1	 1	 0	 69	 1	 1.1	 0.9;
	 185	 1	 17.61	 5.376	 0	 0	 1	 1	 0	 138	 1	 1.1	 0.9;
	 186	 1	 5.19	 1.761	 0	 0	 1	 1	 0	 69	 1	 1.1	 0.9;
	 187	 1	 0	 0	 0	 0	 1	 1	 0	 138	 1	 1.1	 0.9;
	 188	 1	 0	 0	 0	 0	 1	 1	 0	 138	 1	 1.1	 0.9;
	 189	 1	 11.122	 3.985	 0	 0	 1	 1	 0	 69	 1	 1.1	 0.9;
	 190	 1	 4.263	 1.854	 0	 0	 1	 1	 0	 69	 1	 1.1	 0.9;
	 191	 1	 3.337	 1.39	 0	 0	 1	 1	 0	 69	 1	 1.1	 0.9;
	 192	 1	 0	 0	 0	 0	 1	 1	 0	 138	 1	 1.1	 0.9;
	 193	 1	 5.19	 2.132	 0	 0	 1	 1	 0	 69	 1	 1.1	 0.9;
	 194	 1	 10.103	 3.615	 0	 0	 1	 1	 0	 69	 1	 1.1	 0.9;
	 195	 1	 0	 0	 0	 0	 1	 1	 0	 138	 1	 1.1	 0.9;
	 196	 1	 0	 0	 0	 0	 1	 1	 0	 138	 1	 1.1	 0.9;
	 197	 1	 10.566	 4.82	 0	 0	 1	 1	 0	 138	 1	 1.1	 0.9;
	 198	 1	 0	 0	 0	 0	 1	 1	 0	 138	 1	 1.1	 0.9;
	 199	 1	 25.488	 7.878	 0	 0	 1	 1	 0	 345	 1	 1.1	 0.9;
	 200	 1	 11.307	 4.727	 0	 0	 1	 1	 0	 138	 1	 1.1	 0.9;
...
];

mpc_regionR2.gen = [
%	bus         Pg          Qg          Qmax        Qmin        Vg          mBase       status      Pmax        Pmin        Pc1         Pc2         Qc1min      Qc1max      Qc2min      Qc2max      ramp_agc    ramp_10     ramp_30     ramp_q      apf         
	 2	 65.5	 5.3	 33.9	-23.3	 1	 100	 1	 70	 61;
	 3	 45	 3.4	 21.8	-15	 1	 100	 1	 45	 45;
	 3	 45	 3.4	 21.8	-15	 1	 100	 1	 45	 45;
	 3	 45	 3.4	 21.8	-15	 1	 100	 1	 45	 45;
	 3	 45	 3.4	 21.8	-15	 1	 100	 1	 45	 45;
	 3	 45	 3.4	 21.8	-15	 1	 100	 1	 45	 45;
	 3	 45	 3.4	 21.8	-15	 1	 100	 1	 45	 45;
	 6	 43.6	 10.9	 39.2	-17.4	 1	 100	 1	 52.2	 35;
	 6	 43.6	 10.9	 39.2	-17.4	 1	 100	 1	 52.2	 35;
	 6	 43.6	 10.9	 39.2	-17.4	 1	 100	 1	 52.2	 35;
	 7	 12.3	 3.467	 12.467	-5.533	 1	 100	 1	 16.6	 8;
	 7	 12.3	 3.467	 12.467	-5.533	 1	 100	 1	 16.6	 8;
	 7	 12.3	 3.467	 12.467	-5.533	 1	 100	 1	 16.6	 8;
	 8	 27.25	 3.15	 20.1	-13.8	 1	 100	 1	 41.4	 13.1;
	 8	 32.65	 3.95	 25.3	-17.4	 1	 100	 1	 52.2	 13.1;
	 11	 23.45	 2.45	 15.7	-10.8	 1	 100	 1	 32.4	 14.5;
	 11	 23.95	 2.55	 16.2	-11.1	 1	 100	 1	 33.4	 14.5;
	 11	 24.55	 2.65	 16.8	-11.5	 1	 100	 1	 34.6	 14.5;
	 11	 24.55	 2.65	 16.8	-11.5	 1	 100	 1	 34.6	 14.5;
	 12	 22.85	 2.4	 15.3	-10.5	 1	 100	 1	 31.5	 14.2;
	 12	 25.35	 2.75	 17.7	-12.2	 1	 100	 1	 36.5	 14.2;
	 12	 27.2	 3.15	 20.1	-13.8	 1	 100	 1	 41.4	 13;
	 12	 27.2	 3.15	 20.1	-13.8	 1	 100	 1	 41.4	 13;
	 13	 13.5	 0	 10.7	-10.7	 1	 100	 1	 27	 0;
	 349	 71.8	 0	 45.6	-45.6	 1	 100	 1	 113.6	 30;
	 349	 165.2	 0	 85.1	-85.1	 1	 100	 1	 230.4	 100;
	 354	 761	 0	 344.8	-344.8	 1	 100	 1	 950	 572;
	 355	 136.5	 15.1	 96.9	-66.7	 1	 100	 1	 200	 73;
	 355	 136.5	 15.1	 96.9	-66.7	 1	 100	 1	 200	 73;
	 355	 136.5	 15.1	 96.9	-66.7	 1	 100	 1	 200	 73;
	 355	 115	 13.25	 84.8	-58.3	 1	 100	 1	 175	 55;
	 355	 115	 13.25	 84.8	-58.3	 1	 100	 1	 175	 55;
	 355	 115	 13.25	 84.8	-58.3	 1	 100	 1	 175	 55;
	 355	 115	 13.25	 84.8	-58.3	 1	 100	 1	 175	 55;
	 359	 22.65	 2.7	 17.4	-12	 1	 100	 1	 36	 9.3;
	 359	 22.65	 2.7	 17.4	-12	 1	 100	 1	 36	 9.3;
	 360	 32.35	 0	 13.3	-13.3	 1	 100	 1	 40.6	 24.1;
	 360	 33.55	 0	 14.1	-14.1	 1	 100	 1	 43	 24.1;
	 360	 22.4	 2.6	 16.6	-11.4	 1	 100	 1	 34.2	 10.6;
	 360	 23.05	 2.7	 17.2	-11.8	 1	 100	 1	 35.5	 10.6;
];

mpc_regionR2.branch = [
%	fbus        tbus        r           x           b           rateA       rateB       rateC       ratio       angle       status      angmin      angmax      
	 1	 60	 6.51401e-05	 0.00116431	 0.0826343	 1216	 1216	 1216	 0	 0	 1	-30	 30;
	 1	 272	 0.00132786	 0.0228344	 1.79552	 1216	 1216	 1216	 0	 0	 1	-30	 30;
	 1	 348	 1e-07	 0.0001	 0	 800	 1000	 1200	 0	 0	 1	-30	 30;
	 1	 348	 1e-07	 0.0001	 0	 800	 1000	 1200	 0	 0	 1	-30	 30;
	 2	 60	 0.000300653	 0.00537563	 0.381708	 1216	 1216	 1216	 0	 0	 1	-30	 30;
	 3	 31	 0.00882349	 0.0302688	 0.00725168	 142	 142	 142	 0	 0	 1	-30	 30;
	 3	 66	 0.00822482	 0.0247562	 0.00774518	 142	 142	 142	 0	 0	 1	-30	 30;
	 3	 67	 0.0106513	 0.0371223	 0.00860817	 142	 142	 142	 0	 0	 1	-30	 30;
	 3	 68	 0.0344299	 0.0815603	 0.0238689	 118	 118	 118	 0	 0	 1	-30	 30;
	 3	 70	 0.0400586	 0.0930342	 0.0283592	 118	 118	 118	 0	 0	 1	-30	 30;
	 4	 28	 0.00217813	 0.0397097	 2.90163	 1216	 1216	 1216	 0	 0	 1	-30	 30;
	 4	 99	 0.000131325	 0.00234742	 0.166615	 1216	 1216	 1216	 0	 0	 1	-30	 30;
	 4	 272	 0.000140834	 0.00251741	 0.178683	 1703	 1703	 1703	 0	 0	 1	-30	 30;
	 4	 353	 1e-07	 0.0001	 0	 1200	 1500	 1800	 0	 0	 1	-30	 30;
	 5	 316	 6.36724e-05	 0.00113808	 0.0807723	 1320	 1320	 1320	 0	 0	 1	-30	 30;
	 5	 320	 0.000192234	 0.0035612	 0.23516	 3959	 3959	 3959	 0	 0	 1	-30	 30;
	 6	 114	 0.000332831	 0.00595143	 0.422643	 1216	 1216	 1216	 0	 0	 1	-30	 30;
	 7	 121	 0.0135689	 0.0430883	 0.012089	 142	 142	 142	 0	 0	 1	-30	 30;
	 7	 302	 0.0126139	 0.0333379	 0.00780364	 118	 118	 118	 0	 0	 1	-30	 30;
	 8	 302	 0.043952	 0.135111	 0.0406168	 142	 142	 142	 0	 0	 1	-30	 30;
	 8	 311	 0.00919419	 0.0213425	 0.00650219	 118	 118	 118	 0	 0	 1	-30	 30;
	 9	 262	 0.0110867	 0.0387957	 0.012858	 159	 159	 159	 0	 0	 1	-30	 30;
	 9	 297	 0.00894975	 0.0230067	 0.00569705	 118	 118	 118	 0	 0	 1	-30	 30;
	 9	 483	 0.005333	 0.019402	 0.00594	 216	 230	 230	 0	 0	 1	-30	 30;
	 10	 296	 0.000793112	 0.0042849	 0.00742017	 308	 308	 308	 0	 0	 1	-30	 30;
	 11	 171	 0.010063	 0.0314551	 0.00911123	 142	 142	 142	 0	 0	 1	-30	 30;
	 11	 175	 0.00408754	 0.0114659	 0.00295124	 128	 128	 128	 0	 0	 1	-30	 30;
	 11	 176	 0.0119532	 0.0300483	 0.00778482	 118	 118	 118	 0	 0	 1	-30	 30;
	 12	 180	 0.0069636	 0.0209598	 0.00655736	 142	 142	 142	 0	 0	 1	-30	 30;
	 12	 334	 0.00997918	 0.0406105	 0.00989501	 159	 159	 159	 0	 0	 1	-30	 30;
	 13	 131	 0.020356	 0.0646484	 0.0181407	 142	 142	 142	 0	 0	 1	-30	 30;
	 13	 483	 0.0310729	 0.0760809	 0.0208204	 118	 118	 118	 0	 0	 1	-30	 30;
	 14	 64	 0.0541651	 0.145422	 0.00205996	 59	 59	 59	 0	 0	 1	-30	 30;
	 14	 365	 0.0550413	 0.127772	 0.00243302	 59	 59	 59	 0	 0	 1	-30	 30;
	 15	 16	 0.0117478	 0.0278197	 0.00813846	 118	 118	 118	 0	 0	 1	-30	 30;
	 15	 18	 0.0102286	 0.0333628	 0.00885764	 142	 142	 142	 0	 0	 1	-30	 30;
	 18	 66	 0.0104679	 0.0370022	 0.00833824	 142	 142	 142	 0	 0	 1	-30	 30;
	 19	 42	 0.0438307	 0.117986	 0.0331165	 128	 128	 128	 0	 0	 1	-30	 30;
	 20	 47	 0.0714159	 0.169128	 0.00309253	 59	 59	 59	 0	 0	 1	-30	 30;
	 20	 367	 0.104554	 0.28075	 0.00397768	 59	 59	 59	 0	 0	 1	-30	 30;
	 21	 22	 0.0451901	 0.110617	 0.0018914	 59	 59	 59	 0	 0	 1	-30	 30;
	 21	 23	 0.0441026	 0.107955	 0.00184587	 59	 59	 59	 0	 0	 1	-30	 30;
	 22	 139	 0.105697	 0.258775	 0.00442561	 59	 59	 59	 0	 0	 1	-30	 30;
	 23	 368	 0.0403126	 0.0935784	 0.00178185	 59	 59	 59	 0	 0	 1	-30	 30;
	 24	 25	 0.00459643	 0.0145948	 0.00409433	 142	 142	 142	 0	 0	 1	-30	 30;
	 24	 44	 0.0477296	 0.130038	 0.0286729	 118	 118	 118	 0	 0	 1	-30	 30;
	 24	 145	 0.024775	 0.0643302	 0.0156171	 118	 118	 118	 0	 0	 1	-30	 30;
	 24	 458	 0.0671082	 0.234416	 0.0545186	 142	 142	 142	 0	 0	 1	-30	 30;
	 26	 27	 0.0312928	 0.0765972	 0.00130968	 59	 59	 59	 0	 0	 1	-30	 30;
	 26	 142	 0.0827675	 0.19215	 0.00365921	 59	 59	 59	 0	 0	 1	-30	 30;
	 28	 60	 0.000872073	 0.0162004	 1.07422	 1216	 1216	 1216	 0	 0	 1	-30	 30;
	 29	 296	 0.0388169	 0.202603	 0.395035	 308	 308	 308	 0	 0	 1	-30	 30;
	 30	 41	 0.0656563	 0.155486	 0.00284303	 59	 59	 59	 0	 0	 1	-30	 30;
	 32	 33	 0.0751157	 0.174382	 0.00332075	 59	 59	 59	 0	 0	 1	-30	 30;
	 34	 37	 0.0439428	 0.119641	 0.00164745	 59	 59	 59	 0	 0	 1	-30	 30;
	 35	 38	 0.0537829	 0.122003	 0.00243402	 59	 59	 59	 0	 0	 1	-30	 30;
	 36	 37	 0.0222355	 0.0526535	 0.000962676	 59	 59	 59	 0	 0	 1	-30	 30;
	 36	 38	 0.0492009	 0.123683	 0.00200272	 59	 59	 59	 0	 0	 1	-30	 30;
	 37	 38	 0.0442319	 0.108271	 0.00185129	 59	 59	 59	 0	 0	 1	-30	 30;
	 40	 45	 0.0648642	 0.15361	 0.00280871	 59	 59	 59	 0	 0	 1	-30	 30;
	 41	 371	 0.0639937	 0.156651	 0.00267865	 59	 59	 59	 0	 0	 1	-30	 30;
	 42	 372	 0.00732098	 0.0256169	 0.00848958	 159	 159	 159	 0	 0	 1	-30	 30;
	 43	 385	 0.00267737	 0.018623	 0.163413	 549	 549	 549	 0	 0	 1	-30	 30;
	 44	 78	 0.0190227	 0.0450506	 0.0131803	 118	 118	 118	 0	 0	 1	-30	 30;
	 45	 46	 0.0179491	 0.0465976	 0.000706863	 59	 59	 59	 0	 0	 1	-30	 30;
	 49	 376	 0.00169707	 0.0151626	 0.00573443	 293	 293	 293	 0	 0	 1	-30	 30;
	 50	 51	 0.0540302	 0.132258	 0.00226148	 59	 59	 59	 0	 0	 1	-30	 30;
	 50	 61	 0.0801146	 0.196123	 0.00335376	 59	 59	 59	 0	 0	 1	-30	 30;
	 51	 384	 0.0597645	 0.155164	 0.00235394	 59	 59	 59	 0	 0	 1	-30	 30;
	 52	 54	 0.0770093	 0.209686	 0.00288763	 59	 59	 59	 0	 0	 1	-30	 30;
	 52	 380	 0.0682962	 0.167185	 0.00285881	 59	 59	 59	 0	 0	 1	-30	 30;
	 52	 384	 0.170499	 0.403974	 0.00739074	 59	 59	 59	 0	 0	 1	-30	 30;
	 53	 54	 0.0928853	 0.210729	 0.00420469	 59	 59	 59	 0	 0	 1	-30	 30;
	 53	 73	 0.0742033	 0.175731	 0.00321329	 59	 59	 59	 0	 0	 1	-30	 30;
	 53	 485	 0.097766	 0.239349	 0.00409323	 59	 59	 59	 0	 0	 1	-30	 30;
	 54	 377	 0.0615103	 0.167477	 0.00230625	 59	 59	 59	 0	 0	 1	-30	 30;
	 55	 321	 0.0189766	 0.0509512	 0.0115487	 118	 118	 118	 0	 0	 1	-30	 30;
	 55	 386	 0.0218921	 0.0535939	 0.014664	 118	 118	 118	 0	 0	 1	-30	 30;
	 56	 58	 0.0708948	 0.164581	 0.00313407	 59	 59	 59	 0	 0	 1	-30	 30;
	 56	 382	 0.082443	 0.207267	 0.00335647	 59	 59	 59	 0	 0	 1	-30	 30;
	 57	 58	 0.0369164	 0.0975656	 0.00142733	 59	 59	 59	 0	 0	 1	-30	 30;
	 57	 382	 0.140888	 0.319707	 0.00638074	 59	 59	 59	 0	 0	 1	-30	 30;
	 58	 378	 0.0173867	 0.0764935	 0.000994157	 80	 80	 80	 0	 0	 1	-30	 30;
	 62	 69	 0.0233992	 0.0563975	 0.0159262	 118	 118	 118	 0	 0	 1	-30	 30;
	 64	 381	 0.0328569	 0.129142	 0.00211154	 80	 80	 80	 0	 0	 1	-30	 30;
	 65	 67	 0.0157945	 0.0442848	 0.00919596	 118	 118	 118	 0	 0	 1	-30	 30;
	 69	 70	 0.0084416	 0.0212203	 0.00549755	 118	 118	 118	 0	 0	 1	-30	 30;
	 71	 73	 0.0630604	 0.158529	 0.00256705	 59	 59	 59	 0	 0	 1	-30	 30;
	 72	 73	 0.0994294	 0.243423	 0.00416294	 59	 59	 59	 0	 0	 1	-30	 30;
	 74	 384	 0.0133997	 0.0347867	 0.000527696	 59	 59	 59	 0	 0	 1	-30	 30;
	 75	 76	 0.00620621	 0.0144063	 0.00438893	 118	 118	 118	 0	 0	 1	-30	 30;
	 76	 77	 0.0169205	 0.0392803	 0.011968	 118	 118	 118	 0	 0	 1	-30	 30;
	 77	 386	 0.0222583	 0.0588335	 0.0137733	 118	 118	 118	 0	 0	 1	-30	 30;
	 78	 386	 0.0179435	 0.056984	 0.0159891	 142	 142	 142	 0	 0	 1	-30	 30;
	 80	 81	 0.0577197	 0.145101	 0.00234957	 59	 59	 59	 0	 0	 1	-30	 30;
	 80	 129	 0.0463695	 0.124491	 0.00176343	 59	 59	 59	 0	 0	 1	-30	 30;
	 81	 129	 0.103075	 0.252351	 0.00431571	 59	 59	 59	 0	 0	 1	-30	 30;
	 82	 88	 8.77128e-05	 0.000746536	 0.0278265	 1732	 1732	 1732	 0	 0	 1	-30	 30;
	 82	 396	 0.000137	 0.001094	 0.040367	 1732	 1732	 1732	 0	 0	 1	-30	 30;
	 83	 84	 0.0034906	 0.0105062	 0.00328683	 142	 142	 142	 0	 0	 1	-30	 30;
	 83	 397	 0.00762011	 0.024854	 0.0065984	 233	 233	 233	 0	 0	 1	-30	 30;
	 85	 86	 0.0143036	 0.032445	 0.000647255	 59	 59	 59	 0	 0	 1	-30	 30;
	 85	 94	 0.0303525	 0.0742955	 0.00127032	 59	 59	 59	 0	 0	 1	-30	 30;
	 86	 87	 0.019944	 0.0517765	 0.000785425	 59	 59	 59	 0	 0	 1	-30	 30;
	 86	 93	 0.0333718	 0.0756991	 0.00151017	 59	 59	 59	 0	 0	 1	-30	 30;
	 88	 313	 0.000157251	 0.00133839	 0.049888	 1732	 1732	 1732	 0	 0	 1	-30	 30;
	 89	 407	 0.0772969	 0.207538	 0.00294008	 59	 59	 59	 0	 0	 1	-30	 30;
	 90	 95	 0.00883358	 0.0265887	 0.00831855	 142	 142	 142	 0	 0	 1	-30	 30;
	 90	 138	 0.0114179	 0.0391697	 0.00938447	 142	 142	 142	 0	 0	 1	-30	 30;
	 91	 92	 0.0478884	 0.10863	 0.0021672	 59	 59	 59	 0	 0	 1	-30	 30;
	 91	 410	 0.0652346	 0.175146	 0.00248109	 59	 59	 59	 0	 0	 1	-30	 30;
	 92	 393	 0.0269927	 0.0795808	 0.00115706	 64	 64	 64	 0	 0	 1	-30	 30;
	 92	 459	 0.0413413	 0.112944	 0.00191839	 64	 64	 64	 0	 0	 1	-30	 30;
	 94	 394	 0.0216201	 0.0555768	 0.000860124	 59	 59	 59	 0	 0	 1	-30	 30;
	 95	 97	 0.00870005	 0.0276256	 0.00775018	 142	 142	 142	 0	 0	 1	-30	 30;
	 96	 97	 0.00504644	 0.0205355	 0.00500325	 159	 159	 159	 0	 0	 1	-30	 30;
	 96	 458	 0.00921905	 0.0218311	 0.0063864	 118	 118	 118	 0	 0	 1	-30	 30;
	 98	 271	 0.00477657	 0.0143039	 0.00322213	 128	 128	 128	 0	 0	 1	-30	 30;
	 99	 209	 0.00027461	 0.0049097	 0.348594	 1801	 1801	 1801	 0	 0	 1	-30	 30;
	 99	 320	 0.000102207	 0.00182689	 0.129663	 3405	 3405	 3405	 0	 0	 1	-30	 30;
	 99	 396	 1e-07	 0.0001	 0	 1650	 2062.5	 2475	 0	 0	 1	-30	 30;
	 100	 101	 0.00248124	 0.00787848	 0.00221015	 142	 142	 142	 0	 0	 1	-30	 30;
	 100	 402	 0.00404793	 0.0165438	 0.00535471	 175	 175	 175	 0	 0	 1	-30	 30;
	 101	 126	 0.00288216	 0.00653762	 0.00208673	 118	 118	 118	 0	 0	 1	-30	 30;
	 102	 103	 0.0231723	 0.0567197	 0.000969797	 59	 59	 59	 0	 0	 1	-30	 30;
	 102	 246	 0.0275949	 0.0675453	 0.0011549	 59	 59	 59	 0	 0	 1	-30	 30;
	 102	 399	 0.0306146	 0.078699	 0.00121798	 59	 59	 59	 0	 0	 1	-30	 30;
	 103	 405	 0.0124658	 0.0289363	 0.000550966	 59	 59	 59	 0	 0	 1	-30	 30;
	 104	 109	 0.00607438	 0.0163077	 0.00369589	 118	 118	 118	 0	 0	 1	-30	 30;
	 104	 244	 0.0124321	 0.0312523	 0.00809679	 118	 118	 118	 0	 0	 1	-30	 30;
	 105	 106	 0.00775745	 0.0183695	 0.00033585	 59	 59	 59	 0	 0	 1	-30	 30;
	 105	 403	 0.0127776	 0.0353462	 0.00082134	 71	 71	 71	 0	 0	 1	-30	 30;
	 106	 400	 0.0159395	 0.0421254	 0.000616255	 59	 59	 59	 0	 0	 1	-30	 30;
	 106	 401	 0.0194333	 0.0475674	 0.000813307	 59	 59	 59	 0	 0	 1	-30	 30;
	 107	 109	 0.00588689	 0.0144096	 0.00394201	 118	 118	 118	 0	 0	 1	-30	 30;
	 107	 402	 0.00674457	 0.0203005	 0.00635109	 142	 142	 142	 0	 0	 1	-30	 30;
	 110	 111	 0.0191872	 0.0454352	 0.0008307	 59	 59	 59	 0	 0	 1	-30	 30;
	 111	 116	 0.0506965	 0.127444	 0.00206362	 59	 59	 59	 0	 0	 1	-30	 30;
	 111	 401	 0.0536124	 0.121616	 0.0024263	 59	 59	 59	 0	 0	 1	-30	 30;
	 112	 113	 0.00310244	 0.0108122	 0.00250703	 142	 142	 142	 0	 0	 1	-30	 30;
	 112	 118	 0.0132514	 0.0324374	 0.00887431	 118	 118	 118	 0	 0	 1	-30	 30;
	 113	 121	 0.00952261	 0.0251737	 0.00731386	 128	 128	 128	 0	 0	 1	-30	 30;
	 113	 402	 0.00579794	 0.015323	 0.0035866	 118	 118	 118	 0	 0	 1	-30	 30;
	 114	 209	 0.000293703	 0.00544197	 0.359455	 1216	 1216	 1216	 0	 0	 1	-30	 30;
	 115	 116	 0.0327378	 0.0801345	 0.00137016	 59	 59	 59	 0	 0	 1	-30	 30;
	 115	 243	 0.0272829	 0.0708296	 0.00107446	 59	 59	 59	 0	 0	 1	-30	 30;
	 116	 330	 0.0454367	 0.107597	 0.0019673	 59	 59	 59	 0	 0	 1	-30	 30;
	 116	 491	 0.0695656	 0.164746	 0.00301238	 59	 59	 59	 0	 0	 1	-30	 30;
	 117	 118	 0.0139558	 0.0316579	 0.0101055	 118	 118	 118	 0	 0	 1	-30	 30;
	 117	 338	 0.0133803	 0.0359234	 0.0081419	 118	 118	 118	 0	 0	 1	-30	 30;
	 119	 120	 0.059315	 0.134554	 0.00268446	 59	 59	 59	 0	 0	 1	-30	 30;
	 120	 404	 0.0488351	 0.110778	 0.00221005	 59	 59	 59	 0	 0	 1	-30	 30;
	 120	 473	 0.0672733	 0.159316	 0.00291308	 59	 59	 59	 0	 0	 1	-30	 30;
	 122	 123	 0.00716534	 0.0211252	 0.00491437	 128	 128	 128	 0	 0	 1	-30	 30;
	 123	 471	 0.00972613	 0.0317237	 0.0084224	 142	 142	 142	 0	 0	 1	-30	 30;
	 124	 125	 0.00755921	 0.0185031	 0.00506192	 118	 118	 118	 0	 0	 1	-30	 30;
	 125	 261	 0.00719386	 0.0176088	 0.00481725	 118	 118	 118	 0	 0	 1	-30	 30;
	 127	 491	 0.137191	 0.324988	 0.00594428	 59	 59	 59	 0	 0	 1	-30	 30;
	 128	 130	 0.0178711	 0.0414874	 0.0126406	 118	 118	 118	 0	 0	 1	-30	 30;
	 128	 134	 0.0134108	 0.0304214	 0.00971076	 118	 118	 118	 0	 0	 1	-30	 30;
	 130	 321	 0.017813	 0.0470809	 0.0110212	 118	 118	 118	 0	 0	 1	-30	 30;
	 131	 324	 0.0177136	 0.0419495	 0.0122728	 118	 118	 118	 0	 0	 1	-30	 30;
	 133	 134	 0.00675819	 0.0160035	 0.00468154	 118	 118	 118	 0	 0	 1	-30	 30;
	 133	 138	 0.0128256	 0.0338974	 0.00793462	 118	 118	 118	 0	 0	 1	-30	 30;
	 135	 142	 0.0866152	 0.228941	 0.00334975	 59	 59	 59	 0	 0	 1	-30	 30;
	 135	 143	 0.080861	 0.187723	 0.00357488	 59	 59	 59	 0	 0	 1	-30	 30;
	 136	 137	 0.0315244	 0.0731772	 0.00139337	 59	 59	 59	 0	 0	 1	-30	 30;
	 136	 347	 0.0714646	 0.194585	 0.00267962	 59	 59	 59	 0	 0	 1	-30	 30;
	 137	 410	 0.0294816	 0.0721638	 0.00123387	 59	 59	 59	 0	 0	 1	-30	 30;
	 139	 146	 0.0362737	 0.0973842	 0.00137944	 59	 59	 59	 0	 0	 1	-30	 30;
	 141	 411	 0.0480974	 0.123644	 0.00191364	 59	 59	 59	 0	 0	 1	-30	 30;
	 142	 143	 0.0476499	 0.141025	 0.00163959	 59	 59	 59	 0	 0	 1	-30	 30;
	 144	 145	 0.0136708	 0.0310114	 0.00989912	 118	 118	 118	 0	 0	 1	-30	 30;
	 144	 346	 0.0394218	 0.104235	 0.0244116	 118	 118	 118	 0	 0	 1	-30	 30;
	 146	 147	 0.0497755	 0.115547	 0.0022002	 59	 59	 59	 0	 0	 1	-30	 30;
	 148	 412	 0.0560025	 0.137087	 0.00234405	 59	 59	 59	 0	 0	 1	-30	 30;
	 148	 417	 0.0761555	 0.191456	 0.00310036	 59	 59	 59	 0	 0	 1	-30	 30;
	 149	 152	 0.0132893	 0.0356788	 0.00808647	 118	 118	 118	 0	 0	 1	-30	 30;
	 149	 165	 0.0340088	 0.0899112	 0.0210539	 118	 118	 118	 0	 0	 1	-30	 30;
	 151	 153	 0.090386	 0.221275	 0.00378403	 59	 59	 59	 0	 0	 1	-30	 30;
	 152	 181	 0.0125449	 0.0291212	 0.00887225	 118	 118	 118	 0	 0	 1	-30	 30;
	 153	 155	 0.0104599	 0.110855	 0.00205666	 154	 154	 154	 0	 0	 1	-30	 30;
	 155	 156	 0.0472888	 0.118876	 0.00192488	 59	 59	 59	 0	 0	 1	-30	 30;
	 157	 414	 0.0643939	 0.149486	 0.00284657	 59	 59	 59	 0	 0	 1	-30	 30;
	 157	 485	 0.0970669	 0.237637	 0.00406394	 59	 59	 59	 0	 0	 1	-30	 30;
	 158	 309	 0.0551971	 0.138885	 0.0360202	 118	 118	 118	 0	 0	 1	-30	 30;
	 159	 161	 0.050948	 0.130973	 0.00202708	 59	 59	 59	 0	 0	 1	-30	 30;
	 160	 161	 0.0812659	 0.192461	 0.0035193	 59	 59	 59	 0	 0	 1	-30	 30;
	 160	 287	 0.0714015	 0.191706	 0.00271574	 59	 59	 59	 0	 0	 1	-30	 30;
	 160	 421	 0.0514725	 0.119487	 0.00227523	 59	 59	 59	 0	 0	 1	-30	 30;
	 161	 163	 0.0645413	 0.170584	 0.00249571	 59	 59	 59	 0	 0	 1	-30	 30;
	 162	 163	 0.0410875	 0.100574	 0.00171966	 59	 59	 59	 0	 0	 1	-30	 30;
	 163	 167	 0.058549	 0.143321	 0.00245067	 59	 59	 59	 0	 0	 1	-30	 30;
	 164	 165	 0.00306215	 0.00940373	 0.00282335	 142	 142	 142	 0	 0	 1	-30	 30;
	 167	 168	 0.0176971	 0.0467704	 0.000684207	 59	 59	 59	 0	 0	 1	-30	 30;
	 169	 173	 0.0549163	 0.145142	 0.00212342	 59	 59	 59	 0	 0	 1	-30	 30;
	 170	 172	 0.00457364	 0.0118736	 0.00288187	 118	 118	 118	 0	 0	 1	-30	 30;
	 171	 172	 0.00644208	 0.0170254	 0.00398509	 118	 118	 118	 0	 0	 1	-30	 30;
	 173	 179	 0.0601079	 0.142344	 0.0026027	 59	 59	 59	 0	 0	 1	-30	 30;
	 175	 180	 0.0192271	 0.0508194	 0.0118966	 118	 118	 118	 0	 0	 1	-30	 30;
...
];

mpc_regionR2.gencost = [
%	2           startup     shutdown    n           c(n-1)...c0 
	 2	 0	 0	 3	 0	 12.41	-22.38;
	 2	 0	 0	 3	 0	 0.05	-2.245;
	 2	 0	 0	 3	 0	 0.05	-2.245;
	 2	 0	 0	 3	 0	 0.05	-2.245;
	 2	 0	 0	 3	 0	 0.05	-2.245;
	 2	 0	 0	 3	 0	 0.05	-2.245;
	 2	 0	 0	 3	 0	 0.05	-2.245;
	 2	 0	 0	 3	 0	 11.58	-10.16;
	 2	 0	 0	 3	 0	 11.58	-10.16;
	 2	 0	 0	 3	 0	 11.58	-10.16;
	 2	 0	 0	 3	 0	 12.46	 0;
	 2	 0	 0	 3	 0	 12.46	 0;
	 2	 0	 0	 3	 0	 12.46	 0;
	 2	 0	 0	 3	 0	 15.36	-3.984;
	 2	 0	 0	 3	 0	 15.42	-5.656;
	 2	 0	 0	 3	 0	 13.65	-2.974;
	 2	 0	 0	 3	 0	 13.66	-3.102;
	 2	 0	 0	 3	 0	 13.67	-3.258;
	 2	 0	 0	 3	 0	 13.67	-3.258;
	 2	 0	 0	 3	 0	 16.44	-2.824;
	 2	 0	 0	 3	 0	 16.47	-3.47;
	 2	 0	 0	 3	 0	 16.49	-3.968;
	 2	 0	 0	 3	 0	 16.49	-3.968;
	 2	 0	 0	 3	 0	 0.003105	 0;
	 2	 0	 0	 3	 0	 20.78	-67.08;
	 2	 0	 0	 3	 0	 16.89	-172.2;
	 2	 0	 0	 3	 0.001506	 16.21	-1.637;
	 2	 0	 0	 3	 0	 18.4	-130.7;
	 2	 0	 0	 3	 0	 18.4	-130.7;
	 2	 0	 0	 3	 0	 18.4	-130.7;
	 2	 0	 0	 3	 0	 19.05	-103.5;
	 2	 0	 0	 3	 0	 19.05	-103.5;
	 2	 0	 0	 3	 0	 19.05	-103.5;
	 2	 0	 0	 3	 0	 19.05	-103.5;
	 2	 0	 0	 3	 0	 13.01	-2.726;
	 2	 0	 0	 3	 0	 13.01	-2.726;
	 2	 0	 0	 3	 0	 10.65	-5.629;
	 2	 0	 0	 3	 0	 10.67	-6.067;
	 2	 0	 0	 3	 0	 10.56	-2.69;
	 2	 0	 0	 3	 0	 10.57	-2.844;
];


% -------------------- mpc_regionR3 --------------------

mpc_regionR3.version = '2';
mpc_regionR3.baseMVA = 100.0000;
mpc_regionR3.bus = [
%	bus_i       type        Pd          Qd          Gs          Bs          area        Vm          Va          baseKV      zone        Vmax        Vmin        
	 1	 2	 0	 0	 0	 0	 1	 1	 0	 500	 1	 1.1	 0.9;
	 2	 2	 0	 0	 0	 0	 1	 1	 0	 500	 1	 1.1	 0.9;
	 3	 1	 0	 0	 0	 0	 1	 1	 0	 500	 1	 1.1	 0.9;
	 4	 2	 0	 0	 0	 0	 1	 1	 0	 500	 1	 1.1	 0.9;
	 5	 1	 0	 0	 0	 0	 1	 1	 0	 500	 1	 1.1	 0.9;
...